file 3474115 1762406297                                         
version 3
run Multicell-Handover-QUIC-99-20251106-14:17:08-22300
attr configname Multicell-Handover-QUIC
attr datetime 20251106-14:17:08
attr datetimef 20251106-141708
attr experiment Multicell-Handover-QUIC
attr inifile omnetpp.ini
attr iterationvars "$numUEs=100, $ps=1000, $u=0, $numRbs=50"
attr iterationvarsd numUEs=100/ps=1000/u=0/numRbs=50
attr iterationvarsf numUEs=100,ps=1000,u=0,numRbs=50-
attr measurement "$numUEs=100, $ps=1000, $u=0, $numRbs=50"
attr network simu5g.simulations.nr.handover_sim.MultiCell_Standalone
attr processid 22300
attr repetition 0
attr replication #0
attr resultdir results
attr runnumber 99
attr seedset 0
itervar numRbs 50
itervar numUEs 100
itervar ps 1000
itervar u 0
config image-path ../../../images;../../../../inet4.5/images
config extends MultiCell
config description "QUIC-based multicell handover simulation"
config *.numUe 100
config *.ue[*].numApps 1
config *.ue[*].app[0].typename simu5g.apps.filetransfer_multicell.FileReceiverQUIC
config *.ue[*].app[0].localPort "5000 + ancestorIndex(1)"
config *.server.numApps 100
config *.server.app[*].typename simu5g.apps.filetransfer_multicell.FileSenderQUIC
config *.server.app[*].destAddress "\"ue[\" + string(ancestorIndex(0)) + \"]\""
config *.server.app[*].destPort "5000 + ancestorIndex(0)"
config *.server.app[*].localPort "3088 + ancestorIndex(0)"
config *.server.app[*].nFrames 2000
config *.server.app[*].payloadSize 1000B
config *.server.app[*].samplingTime 0.02s
config *.server.app[*].startTime "uniform(1.2s, 1.3s)"
config output-scalar-file results/QUIC/Multicell-Handover-QUIC-0.sca
config output-vector-file results/QUIC/Multicell-Handover-QUIC-0.vec
config network simu5g.simulations.nr.handover_sim.MultiCell_Standalone
config description "Base configuration for multicell NR standalone deployment"
config **.downlinkInterference true
config **.uplinkInterference true
config **.ueTxPower 20dBm
config **.eNodeBTxPower 20dBm
config **.targetBler 0.01
config **.blerShift 5
config **.fbPeriod 40tti
config **.mobility.constraintAreaMaxX 1000m
config **.mobility.constraintAreaMaxY 750m
config **.mobility.constraintAreaMinX 0m
config **.mobility.constraintAreaMinY 250m
config **.mobility.constraintAreaMinZ 0m
config **.mobility.constraintAreaMaxZ 0m
config **.mobility.initFromDisplayString false
config *.carrierAggregation.numComponentCarriers 1
config *.carrierAggregation.componentCarrier[0].numerologyIndex 0
config *.carrierAggregation.componentCarrier[0].carrierFrequency 2GHz
config *.carrierAggregation.componentCarrier[0].numBands 50
config *.gnb*.cellularNic.numCarriers 1
config *.gnb*.cellularNic.channelModel[0].componentCarrierModule "\"carrierAggregation.componentCarrier[0]\""
config *.ue[*].cellularNic.numCarriers 1
config *.ue[*].cellularNic.nrChannelModel[0].componentCarrierModule "\"carrierAggregation.componentCarrier[0]\""
config *.gnb1.mobility.initialX 250m
config *.gnb1.mobility.initialY 500m
config *.gnb2.mobility.initialX 750m
config *.gnb2.mobility.initialY 500m
config *.gnb*.numX2Apps 1
config *.gnb*.x2App[*].server.localPort "5000 + ancestorIndex(1)"
config *.gnb1.x2App[0].client.connectAddress "\"gnb2%x2ppp0\""
config *.gnb2.x2App[0].client.connectAddress "\"gnb1%x2ppp0\""
config **.dynamicCellAssociation true
config **.enableHandover true
config *.ue[*].macCellId 0
config *.ue[*].masterId 0
config *.ue[*].nrMacCellId 1
config *.ue[*].nrMasterId 1
config image-path ../../../images
config output-scalar-file-append false
config sim-time-limit 20s
config warmup-period 1s
config seed-set 0
config debug-on-errors false
config result-dir results
config output-scalar-file "results/Multicell-Handover-QUIC/$numUEs=100, $ps=1000, $u=0, $numRbs=50-0.sca"
config output-vector-file "results/Multicell-Handover-QUIC/$numUEs=100, $ps=1000, $u=0, $numRbs=50-0.vec"
config **.vector-recording false
config **.sctp.**.scalar-recording false
config **.sctp.**.vector-recording false
config **.routingRecorder.enabled false
config **.sctp.nagleEnabled false
config **.sctp.enableHeartbeats true
config **.mobility.constraintAreaMaxX 1000m
config **.mobility.constraintAreaMaxY 700m
config **.mobility.constraintAreaMinX 0m
config **.mobility.constraintAreaMinY 250mm
config **.mobility.constraintAreaMinZ 0m
config **.mobility.constraintAreaMaxZ 0m
config **.mobility.initFromDisplayString false
config *.configurator.config "xmldoc(\"./demo.xml\")"
config **.downlinkInterference true
config **.uplinkInterference true
config **.fading false
config **.shadowing false
config **.targetBler 0.01
config **.blerShift 5

vector 0 MultiCell_Standalone.server.lo[0].lo rcvdPkFromHl:vector(packetBytes) ETV
attr interpolationmode none
attr recordingmode vector(packetBytes)
attr source packetReceivedFromUpper
attr title "packets received from higher layer, packetBytes"
vector 1 MultiCell_Standalone.server.lo[0].lo passedUpPk:vector(packetBytes) ETV
attr interpolationmode none
attr recordingmode vector(packetBytes)
attr source packetSentToUpper
attr title "packets passed to higher layer, packetBytes"
vector 2 MultiCell_Standalone.server.lo[0] packetDropInterfaceDown:vector(packetBytes) ETV
attr interpolationmode none
attr recordingmode vector(packetBytes)
attr source packetDropReasonIsInterfaceDown(packetDropped)
attr title "packet drops: interface down, packetBytes"
vector 3 MultiCell_Standalone.server.lo[0] packetDropNoCarrier:vector(packetBytes) ETV
attr interpolationmode none
attr recordingmode vector(packetBytes)
attr source packetDropReasonIsNoCarrier(packetDropped)
attr title "packet drops: no carrier, packetBytes"
vector 4 MultiCell_Standalone.server.ppp[0].queue queueLength:vector ETV
attr autoWarmupFilter false
attr interpolationmode sample-hold
attr recordingmode vector
attr source "warmup(atomic(constant0(packetPushEnded) + count(packetPushStarted) - count(packetPulled) - count(packetRemoved) - count(packetDropped)))"
attr title "queue length"
attr unit pk
vector 5 MultiCell_Standalone.server.ppp[0].queue queueBitLength:vector ETV
attr autoWarmupFilter false
attr interpolationmode sample-hold
attr recordingmode vector
attr source "warmup(atomic(constant0(packetPushEnded) + sum(packetLength(packetPushStarted)) - sum(packetLength(packetPulled)) - sum(packetLength(packetRemoved)) - sum(packetLength(packetDropped))))"
attr title "queue bit length"
attr unit b
vector 6 MultiCell_Standalone.server.ppp[0].queue queueingTime:vector ETV
attr interpolationmode none
attr recordingmode vector
attr source queueingTime(packetPulled)
attr title "queueing times"
attr unit s
vector 7 MultiCell_Standalone.server.ppp[0].queue incomingPacketLengths:vector ETV
attr interpolationmode none
attr recordingmode vector
attr source packetLength(packetPushStarted)
attr title "incoming packet lengths"
attr unit b
vector 8 MultiCell_Standalone.server.ppp[0].queue incomingDataRate:vector ETV
attr interpolationmode linear
attr recordingmode vector
attr source throughput(packetPushStarted)
attr title "incoming datarate"
attr unit bps
vector 9 MultiCell_Standalone.server.ppp[0].queue outgoingPacketLengths:vector ETV
attr interpolationmode none
attr recordingmode vector
attr source packetLength(packetPulled)
attr title "outgoing packet lengths"
attr unit b
vector 10 MultiCell_Standalone.server.ppp[0].queue outgoingDataRate:vector ETV
attr interpolationmode linear
attr recordingmode vector
attr source throughput(packetPulled)
attr title "outgoing datarate"
attr unit bps
vector 11 MultiCell_Standalone.server.ppp[0].queue droppedPacketLengthsQueueOverflow:vector ETV
attr interpolationmode none
attr recordingmode vector
attr source packetLength(packetDropReasonIsQueueOverflow(packetDropped))
attr title "dropped packet lengths: queue overflow"
attr unit b
vector 12 MultiCell_Standalone.server.ppp[0].queue flowQueueingTime:vector ETV
attr interpolationmode none
attr recordingmode vector
attr source queueingTime(demuxFlow(packetPulled))
attr title "flow queueing times"
attr unit s
vector 13 MultiCell_Standalone.server.ppp[0].queue flowIncomingDataRate:vector ETV
attr interpolationmode linear
attr recordingmode vector
attr source throughput(flowPacketLength(demuxFlow(packetPushStarted)))
attr title "flow specific incoming data rate"
attr unit bps
vector 14 MultiCell_Standalone.server.ppp[0].queue flowOutgoingDataRate:vector ETV
attr interpolationmode linear
attr recordingmode vector
attr source throughput(flowPacketLength(demuxFlow(packetPulled)))
attr title "flow specific outgoing data rate"
attr unit bps
vector 15 MultiCell_Standalone.server.ppp[0].ppp transmissionState:vector ETV
attr interpolationmode sample-hold
attr recordingmode vector
attr source transmissionStateChanged
attr title "tx state"
vector 16 MultiCell_Standalone.server.ppp[0].ppp txPk:vector(packetBytes) ETV
attr interpolationmode none
attr recordingmode vector(packetBytes)
attr source packetSentToLower
attr title "packets transmitted, packetBytes"
vector 17 MultiCell_Standalone.server.ppp[0].ppp rxPkOk:vector(packetBytes) ETV
attr interpolationmode none
attr recordingmode vector(packetBytes)
attr source rxPkOk
attr title "packets received OK, packetBytes"
vector 18 MultiCell_Standalone.server.ppp[0].ppp packetDropIncorrectlyReceived:vector(packetBytes) ETV
attr interpolationmode none
attr recordingmode vector(packetBytes)
attr source packetDropReasonIsIncorrectlyReceived(packetDropped)
attr title "packet drop: incorrectly received, packetBytes"
vector 19 MultiCell_Standalone.server.ppp[0].ppp packetDropInterfaceDown:vector(packetBytes) ETV
attr interpolationmode none
attr recordingmode vector(packetBytes)
attr source packetDropReasonIsInterfaceDown(packetDropped)
attr title "packet drop: interface down, packetBytes"
vector 20 MultiCell_Standalone.server.ppp[0].ppp rcvdPkFromHl:vector(packetBytes) ETV
attr interpolationmode none
attr recordingmode vector(packetBytes)
attr source packetReceivedFromUpper
attr title "packets received from higher layer, packetBytes"
vector 21 MultiCell_Standalone.server.ppp[0].ppp passedUpPk:vector(packetBytes) ETV
attr interpolationmode none
attr recordingmode vector(packetBytes)
attr source packetSentToUpper
attr title "packets passed to higher layer, packetBytes"
vector 22 MultiCell_Standalone.server.ppp[0] packetDropInterfaceDown:vector(packetBytes) ETV
attr interpolationmode none
attr recordingmode vector(packetBytes)
attr source packetDropReasonIsInterfaceDown(packetDropped)
attr title "packet drops: interface down, packetBytes"
vector 23 MultiCell_Standalone.server.ppp[0] packetDropNoCarrier:vector(packetBytes) ETV
attr interpolationmode none
attr recordingmode vector(packetBytes)
attr source packetDropReasonIsNoCarrier(packetDropped)
attr title "packet drops: no carrier, packetBytes"
vector 24 MultiCell_Standalone.server.ipv4.ip packetDropAddressResolutionFailed:vector(packetBytes) ETV
attr interpolationmode none
attr recordingmode vector(packetBytes)
attr source packetDropReasonIsAddressResolutionFailed(packetDropped)
attr title "packet drop: address resolution failed, packetBytes"
vector 25 MultiCell_Standalone.server.ipv4.ip packetDropHopLimitReached:vector(packetBytes) ETV
attr interpolationmode none
attr recordingmode vector(packetBytes)
attr source packetDropReasonIsHopLimitReached(packetDropped)
attr title "packet drop: hop limit reached, packetBytes"
vector 26 MultiCell_Standalone.server.ipv4.ip packetDropForwardingDisabled:vector(packetBytes) ETV
attr interpolationmode none
attr recordingmode vector(packetBytes)
attr source packetDropReasonIsForwardingDisabled(packetDropped)
attr title "packet drop: forwarding disabled, packetBytes"
vector 27 MultiCell_Standalone.server.ipv4.ip packetDropNoInterfaceFound:vector(packetBytes) ETV
attr interpolationmode none
attr recordingmode vector(packetBytes)
attr source packetDropReasonIsNoInterfaceFound(packetDropped)
attr title "packet drop: no interface found, packetBytes"
vector 28 MultiCell_Standalone.server.ipv4.ip packetDropNoRouteFound:vector(packetBytes) ETV
attr interpolationmode none
attr recordingmode vector(packetBytes)
attr source packetDropReasonIsNoRouteFound(packetDropped)
attr title "packet drop: no route found, packetBytes"
vector 29 MultiCell_Standalone.server.ipv4.ip packetDropUndefined:vector(packetBytes) ETV
attr interpolationmode none
attr recordingmode vector(packetBytes)
attr source packetDropReasonIsUndefined(packetDropped)
attr title "packet drop: undefined, packetBytes"
vector 30 MultiCell_Standalone.server.ipv4.arp arpRequestSent:vector(packetBytes) ETV
attr recordingmode vector(packetBytes)
attr source arpRequestSent
attr title "ARP request sent, packetBytes"
vector 31 MultiCell_Standalone.server.ipv4.arp arpReplySent:vector(packetBytes) ETV
attr recordingmode vector(packetBytes)
attr source arpReplySent
attr title "ARP replies sent, packetBytes"
vector 32 MultiCell_Standalone.server.udp packetSent:vector(packetBytes) ETV
attr interpolationmode none
attr recordingmode vector(packetBytes)
attr source packetSent
attr title "packets sent, packetBytes"
vector 33 MultiCell_Standalone.server.udp packetReceived:vector(packetBytes) ETV
attr interpolationmode none
attr recordingmode vector(packetBytes)
attr source packetReceived
attr title "packets received, packetBytes"
vector 34 MultiCell_Standalone.server.udp passedUpPk:vector(count) ETV
attr interpolationmode none
attr recordingmode vector(count)
attr source packetSentToUpper
attr title "packets passed up, count"
vector 35 MultiCell_Standalone.server.udp droppedPkWrongPort:vector(count) ETV
attr interpolationmode none
attr recordingmode vector(count)
attr source packetDropReasonIsNoPortFound(packetDropped)
attr title "packets dropped (wrong port), count"
vector 36 MultiCell_Standalone.server.udp droppedPkBadChecksum:vector(count) ETV
attr interpolationmode none
attr recordingmode vector(count)
attr source packetDropReasonIsIncorrectlyReceived(packetDropped)
attr title "packets dropped (checksum error), count"
vector 37 MultiCell_Standalone.router.lo[0].lo rcvdPkFromHl:vector(packetBytes) ETV
attr interpolationmode none
attr recordingmode vector(packetBytes)
attr source packetReceivedFromUpper
attr title "packets received from higher layer, packetBytes"
vector 38 MultiCell_Standalone.router.lo[0].lo passedUpPk:vector(packetBytes) ETV
attr interpolationmode none
attr recordingmode vector(packetBytes)
attr source packetSentToUpper
attr title "packets passed to higher layer, packetBytes"
vector 39 MultiCell_Standalone.router.lo[0] packetDropInterfaceDown:vector(packetBytes) ETV
attr interpolationmode none
attr recordingmode vector(packetBytes)
attr source packetDropReasonIsInterfaceDown(packetDropped)
attr title "packet drops: interface down, packetBytes"
vector 40 MultiCell_Standalone.router.lo[0] packetDropNoCarrier:vector(packetBytes) ETV
attr interpolationmode none
attr recordingmode vector(packetBytes)
attr source packetDropReasonIsNoCarrier(packetDropped)
attr title "packet drops: no carrier, packetBytes"
vector 41 MultiCell_Standalone.router.ppp[0].queue queueLength:vector ETV
attr autoWarmupFilter false
attr interpolationmode sample-hold
attr recordingmode vector
attr source "warmup(atomic(constant0(packetPushEnded) + count(packetPushStarted) - count(packetPulled) - count(packetRemoved) - count(packetDropped)))"
attr title "queue length"
attr unit pk
vector 42 MultiCell_Standalone.router.ppp[0].queue queueBitLength:vector ETV
attr autoWarmupFilter false
attr interpolationmode sample-hold
attr recordingmode vector
attr source "warmup(atomic(constant0(packetPushEnded) + sum(packetLength(packetPushStarted)) - sum(packetLength(packetPulled)) - sum(packetLength(packetRemoved)) - sum(packetLength(packetDropped))))"
attr title "queue bit length"
attr unit b
vector 43 MultiCell_Standalone.router.ppp[0].queue queueingTime:vector ETV
attr interpolationmode none
attr recordingmode vector
attr source queueingTime(packetPulled)
attr title "queueing times"
attr unit s
vector 44 MultiCell_Standalone.router.ppp[0].queue incomingPacketLengths:vector ETV
attr interpolationmode none
attr recordingmode vector
attr source packetLength(packetPushStarted)
attr title "incoming packet lengths"
attr unit b
vector 45 MultiCell_Standalone.router.ppp[0].queue incomingDataRate:vector ETV
attr interpolationmode linear
attr recordingmode vector
attr source throughput(packetPushStarted)
attr title "incoming datarate"
attr unit bps
vector 46 MultiCell_Standalone.router.ppp[0].queue outgoingPacketLengths:vector ETV
attr interpolationmode none
attr recordingmode vector
attr source packetLength(packetPulled)
attr title "outgoing packet lengths"
attr unit b
vector 47 MultiCell_Standalone.router.ppp[0].queue outgoingDataRate:vector ETV
attr interpolationmode linear
attr recordingmode vector
attr source throughput(packetPulled)
attr title "outgoing datarate"
attr unit bps
vector 48 MultiCell_Standalone.router.ppp[0].queue droppedPacketLengthsQueueOverflow:vector ETV
attr interpolationmode none
attr recordingmode vector
attr source packetLength(packetDropReasonIsQueueOverflow(packetDropped))
attr title "dropped packet lengths: queue overflow"
attr unit b
vector 49 MultiCell_Standalone.router.ppp[0].queue flowQueueingTime:vector ETV
attr interpolationmode none
attr recordingmode vector
attr source queueingTime(demuxFlow(packetPulled))
attr title "flow queueing times"
attr unit s
vector 50 MultiCell_Standalone.router.ppp[0].queue flowIncomingDataRate:vector ETV
attr interpolationmode linear
attr recordingmode vector
attr source throughput(flowPacketLength(demuxFlow(packetPushStarted)))
attr title "flow specific incoming data rate"
attr unit bps
vector 51 MultiCell_Standalone.router.ppp[0].queue flowOutgoingDataRate:vector ETV
attr interpolationmode linear
attr recordingmode vector
attr source throughput(flowPacketLength(demuxFlow(packetPulled)))
attr title "flow specific outgoing data rate"
attr unit bps
vector 52 MultiCell_Standalone.router.ppp[0].ppp transmissionState:vector ETV
attr interpolationmode sample-hold
attr recordingmode vector
attr source transmissionStateChanged
attr title "tx state"
vector 53 MultiCell_Standalone.router.ppp[0].ppp txPk:vector(packetBytes) ETV
attr interpolationmode none
attr recordingmode vector(packetBytes)
attr source packetSentToLower
attr title "packets transmitted, packetBytes"
vector 54 MultiCell_Standalone.router.ppp[0].ppp rxPkOk:vector(packetBytes) ETV
attr interpolationmode none
attr recordingmode vector(packetBytes)
attr source rxPkOk
attr title "packets received OK, packetBytes"
vector 55 MultiCell_Standalone.router.ppp[0].ppp packetDropIncorrectlyReceived:vector(packetBytes) ETV
attr interpolationmode none
attr recordingmode vector(packetBytes)
attr source packetDropReasonIsIncorrectlyReceived(packetDropped)
attr title "packet drop: incorrectly received, packetBytes"
vector 56 MultiCell_Standalone.router.ppp[0].ppp packetDropInterfaceDown:vector(packetBytes) ETV
attr interpolationmode none
attr recordingmode vector(packetBytes)
attr source packetDropReasonIsInterfaceDown(packetDropped)
attr title "packet drop: interface down, packetBytes"
vector 57 MultiCell_Standalone.router.ppp[0].ppp rcvdPkFromHl:vector(packetBytes) ETV
attr interpolationmode none
attr recordingmode vector(packetBytes)
attr source packetReceivedFromUpper
attr title "packets received from higher layer, packetBytes"
vector 58 MultiCell_Standalone.router.ppp[0].ppp passedUpPk:vector(packetBytes) ETV
attr interpolationmode none
attr recordingmode vector(packetBytes)
attr source packetSentToUpper
attr title "packets passed to higher layer, packetBytes"
vector 59 MultiCell_Standalone.router.ppp[0] packetDropInterfaceDown:vector(packetBytes) ETV
attr interpolationmode none
attr recordingmode vector(packetBytes)
attr source packetDropReasonIsInterfaceDown(packetDropped)
attr title "packet drops: interface down, packetBytes"
vector 60 MultiCell_Standalone.router.ppp[0] packetDropNoCarrier:vector(packetBytes) ETV
attr interpolationmode none
attr recordingmode vector(packetBytes)
attr source packetDropReasonIsNoCarrier(packetDropped)
attr title "packet drops: no carrier, packetBytes"
vector 61 MultiCell_Standalone.router.ppp[1].queue queueLength:vector ETV
attr autoWarmupFilter false
attr interpolationmode sample-hold
attr recordingmode vector
attr source "warmup(atomic(constant0(packetPushEnded) + count(packetPushStarted) - count(packetPulled) - count(packetRemoved) - count(packetDropped)))"
attr title "queue length"
attr unit pk
vector 62 MultiCell_Standalone.router.ppp[1].queue queueBitLength:vector ETV
attr autoWarmupFilter false
attr interpolationmode sample-hold
attr recordingmode vector
attr source "warmup(atomic(constant0(packetPushEnded) + sum(packetLength(packetPushStarted)) - sum(packetLength(packetPulled)) - sum(packetLength(packetRemoved)) - sum(packetLength(packetDropped))))"
attr title "queue bit length"
attr unit b
vector 63 MultiCell_Standalone.router.ppp[1].queue queueingTime:vector ETV
attr interpolationmode none
attr recordingmode vector
attr source queueingTime(packetPulled)
attr title "queueing times"
attr unit s
vector 64 MultiCell_Standalone.router.ppp[1].queue incomingPacketLengths:vector ETV
attr interpolationmode none
attr recordingmode vector
attr source packetLength(packetPushStarted)
attr title "incoming packet lengths"
attr unit b
vector 65 MultiCell_Standalone.router.ppp[1].queue incomingDataRate:vector ETV
attr interpolationmode linear
attr recordingmode vector
attr source throughput(packetPushStarted)
attr title "incoming datarate"
attr unit bps
vector 66 MultiCell_Standalone.router.ppp[1].queue outgoingPacketLengths:vector ETV
attr interpolationmode none
attr recordingmode vector
attr source packetLength(packetPulled)
attr title "outgoing packet lengths"
attr unit b
vector 67 MultiCell_Standalone.router.ppp[1].queue outgoingDataRate:vector ETV
attr interpolationmode linear
attr recordingmode vector
attr source throughput(packetPulled)
attr title "outgoing datarate"
attr unit bps
vector 68 MultiCell_Standalone.router.ppp[1].queue droppedPacketLengthsQueueOverflow:vector ETV
attr interpolationmode none
attr recordingmode vector
attr source packetLength(packetDropReasonIsQueueOverflow(packetDropped))
attr title "dropped packet lengths: queue overflow"
attr unit b
vector 69 MultiCell_Standalone.router.ppp[1].queue flowQueueingTime:vector ETV
attr interpolationmode none
attr recordingmode vector
attr source queueingTime(demuxFlow(packetPulled))
attr title "flow queueing times"
attr unit s
vector 70 MultiCell_Standalone.router.ppp[1].queue flowIncomingDataRate:vector ETV
attr interpolationmode linear
attr recordingmode vector
attr source throughput(flowPacketLength(demuxFlow(packetPushStarted)))
attr title "flow specific incoming data rate"
attr unit bps
vector 71 MultiCell_Standalone.router.ppp[1].queue flowOutgoingDataRate:vector ETV
attr interpolationmode linear
attr recordingmode vector
attr source throughput(flowPacketLength(demuxFlow(packetPulled)))
attr title "flow specific outgoing data rate"
attr unit bps
vector 72 MultiCell_Standalone.router.ppp[1].ppp transmissionState:vector ETV
attr interpolationmode sample-hold
attr recordingmode vector
attr source transmissionStateChanged
attr title "tx state"
vector 73 MultiCell_Standalone.router.ppp[1].ppp txPk:vector(packetBytes) ETV
attr interpolationmode none
attr recordingmode vector(packetBytes)
attr source packetSentToLower
attr title "packets transmitted, packetBytes"
vector 74 MultiCell_Standalone.router.ppp[1].ppp rxPkOk:vector(packetBytes) ETV
attr interpolationmode none
attr recordingmode vector(packetBytes)
attr source rxPkOk
attr title "packets received OK, packetBytes"
vector 75 MultiCell_Standalone.router.ppp[1].ppp packetDropIncorrectlyReceived:vector(packetBytes) ETV
attr interpolationmode none
attr recordingmode vector(packetBytes)
attr source packetDropReasonIsIncorrectlyReceived(packetDropped)
attr title "packet drop: incorrectly received, packetBytes"
vector 76 MultiCell_Standalone.router.ppp[1].ppp packetDropInterfaceDown:vector(packetBytes) ETV
attr interpolationmode none
attr recordingmode vector(packetBytes)
attr source packetDropReasonIsInterfaceDown(packetDropped)
attr title "packet drop: interface down, packetBytes"
vector 77 MultiCell_Standalone.router.ppp[1].ppp rcvdPkFromHl:vector(packetBytes) ETV
attr interpolationmode none
attr recordingmode vector(packetBytes)
attr source packetReceivedFromUpper
attr title "packets received from higher layer, packetBytes"
vector 78 MultiCell_Standalone.router.ppp[1].ppp passedUpPk:vector(packetBytes) ETV
attr interpolationmode none
attr recordingmode vector(packetBytes)
attr source packetSentToUpper
attr title "packets passed to higher layer, packetBytes"
vector 79 MultiCell_Standalone.router.ppp[1] packetDropInterfaceDown:vector(packetBytes) ETV
attr interpolationmode none
attr recordingmode vector(packetBytes)
attr source packetDropReasonIsInterfaceDown(packetDropped)
attr title "packet drops: interface down, packetBytes"
vector 80 MultiCell_Standalone.router.ppp[1] packetDropNoCarrier:vector(packetBytes) ETV
attr interpolationmode none
attr recordingmode vector(packetBytes)
attr source packetDropReasonIsNoCarrier(packetDropped)
attr title "packet drops: no carrier, packetBytes"
vector 81 MultiCell_Standalone.router.ipv4.ip packetDropAddressResolutionFailed:vector(packetBytes) ETV
attr interpolationmode none
attr recordingmode vector(packetBytes)
attr source packetDropReasonIsAddressResolutionFailed(packetDropped)
attr title "packet drop: address resolution failed, packetBytes"
vector 82 MultiCell_Standalone.router.ipv4.ip packetDropHopLimitReached:vector(packetBytes) ETV
attr interpolationmode none
attr recordingmode vector(packetBytes)
attr source packetDropReasonIsHopLimitReached(packetDropped)
attr title "packet drop: hop limit reached, packetBytes"
vector 83 MultiCell_Standalone.router.ipv4.ip packetDropForwardingDisabled:vector(packetBytes) ETV
attr interpolationmode none
attr recordingmode vector(packetBytes)
attr source packetDropReasonIsForwardingDisabled(packetDropped)
attr title "packet drop: forwarding disabled, packetBytes"
vector 84 MultiCell_Standalone.router.ipv4.ip packetDropNoInterfaceFound:vector(packetBytes) ETV
attr interpolationmode none
attr recordingmode vector(packetBytes)
attr source packetDropReasonIsNoInterfaceFound(packetDropped)
attr title "packet drop: no interface found, packetBytes"
vector 85 MultiCell_Standalone.router.ipv4.ip packetDropNoRouteFound:vector(packetBytes) ETV
attr interpolationmode none
attr recordingmode vector(packetBytes)
attr source packetDropReasonIsNoRouteFound(packetDropped)
attr title "packet drop: no route found, packetBytes"
vector 86 MultiCell_Standalone.router.ipv4.ip packetDropUndefined:vector(packetBytes) ETV
attr interpolationmode none
attr recordingmode vector(packetBytes)
attr source packetDropReasonIsUndefined(packetDropped)
attr title "packet drop: undefined, packetBytes"
vector 87 MultiCell_Standalone.router.ipv4.arp arpRequestSent:vector(packetBytes) ETV
attr recordingmode vector(packetBytes)
attr source arpRequestSent
attr title "ARP request sent, packetBytes"
vector 88 MultiCell_Standalone.router.ipv4.arp arpReplySent:vector(packetBytes) ETV
attr recordingmode vector(packetBytes)
attr source arpReplySent
attr title "ARP replies sent, packetBytes"
vector 89 MultiCell_Standalone.upf.lo[0].lo rcvdPkFromHl:vector(packetBytes) ETV
attr interpolationmode none
attr recordingmode vector(packetBytes)
attr source packetReceivedFromUpper
attr title "packets received from higher layer, packetBytes"
vector 90 MultiCell_Standalone.upf.lo[0].lo passedUpPk:vector(packetBytes) ETV
attr interpolationmode none
attr recordingmode vector(packetBytes)
attr source packetSentToUpper
attr title "packets passed to higher layer, packetBytes"
vector 91 MultiCell_Standalone.upf.lo[0] packetDropInterfaceDown:vector(packetBytes) ETV
attr interpolationmode none
attr recordingmode vector(packetBytes)
attr source packetDropReasonIsInterfaceDown(packetDropped)
attr title "packet drops: interface down, packetBytes"
vector 92 MultiCell_Standalone.upf.lo[0] packetDropNoCarrier:vector(packetBytes) ETV
attr interpolationmode none
attr recordingmode vector(packetBytes)
attr source packetDropReasonIsNoCarrier(packetDropped)
attr title "packet drops: no carrier, packetBytes"
vector 93 MultiCell_Standalone.upf.ppp[0].queue queueLength:vector ETV
attr autoWarmupFilter false
attr interpolationmode sample-hold
attr recordingmode vector
attr source "warmup(atomic(constant0(packetPushEnded) + count(packetPushStarted) - count(packetPulled) - count(packetRemoved) - count(packetDropped)))"
attr title "queue length"
attr unit pk
vector 94 MultiCell_Standalone.upf.ppp[0].queue queueBitLength:vector ETV
attr autoWarmupFilter false
attr interpolationmode sample-hold
attr recordingmode vector
attr source "warmup(atomic(constant0(packetPushEnded) + sum(packetLength(packetPushStarted)) - sum(packetLength(packetPulled)) - sum(packetLength(packetRemoved)) - sum(packetLength(packetDropped))))"
attr title "queue bit length"
attr unit b
vector 95 MultiCell_Standalone.upf.ppp[0].queue queueingTime:vector ETV
attr interpolationmode none
attr recordingmode vector
attr source queueingTime(packetPulled)
attr title "queueing times"
attr unit s
vector 96 MultiCell_Standalone.upf.ppp[0].queue incomingPacketLengths:vector ETV
attr interpolationmode none
attr recordingmode vector
attr source packetLength(packetPushStarted)
attr title "incoming packet lengths"
attr unit b
vector 97 MultiCell_Standalone.upf.ppp[0].queue incomingDataRate:vector ETV
attr interpolationmode linear
attr recordingmode vector
attr source throughput(packetPushStarted)
attr title "incoming datarate"
attr unit bps
vector 98 MultiCell_Standalone.upf.ppp[0].queue outgoingPacketLengths:vector ETV
attr interpolationmode none
attr recordingmode vector
attr source packetLength(packetPulled)
attr title "outgoing packet lengths"
attr unit b
vector 99 MultiCell_Standalone.upf.ppp[0].queue outgoingDataRate:vector ETV
attr interpolationmode linear
attr recordingmode vector
attr source throughput(packetPulled)
attr title "outgoing datarate"
attr unit bps
vector 100 MultiCell_Standalone.upf.ppp[0].queue droppedPacketLengthsQueueOverflow:vector ETV
attr interpolationmode none
attr recordingmode vector
attr source packetLength(packetDropReasonIsQueueOverflow(packetDropped))
attr title "dropped packet lengths: queue overflow"
attr unit b
vector 101 MultiCell_Standalone.upf.ppp[0].queue flowQueueingTime:vector ETV
attr interpolationmode none
attr recordingmode vector
attr source queueingTime(demuxFlow(packetPulled))
attr title "flow queueing times"
attr unit s
vector 102 MultiCell_Standalone.upf.ppp[0].queue flowIncomingDataRate:vector ETV
attr interpolationmode linear
attr recordingmode vector
attr source throughput(flowPacketLength(demuxFlow(packetPushStarted)))
attr title "flow specific incoming data rate"
attr unit bps
vector 103 MultiCell_Standalone.upf.ppp[0].queue flowOutgoingDataRate:vector ETV
attr interpolationmode linear
attr recordingmode vector
attr source throughput(flowPacketLength(demuxFlow(packetPulled)))
attr title "flow specific outgoing data rate"
attr unit bps
vector 104 MultiCell_Standalone.upf.ppp[0].ppp transmissionState:vector ETV
attr interpolationmode sample-hold
attr recordingmode vector
attr source transmissionStateChanged
attr title "tx state"
vector 105 MultiCell_Standalone.upf.ppp[0].ppp txPk:vector(packetBytes) ETV
attr interpolationmode none
attr recordingmode vector(packetBytes)
attr source packetSentToLower
attr title "packets transmitted, packetBytes"
vector 106 MultiCell_Standalone.upf.ppp[0].ppp rxPkOk:vector(packetBytes) ETV
attr interpolationmode none
attr recordingmode vector(packetBytes)
attr source rxPkOk
attr title "packets received OK, packetBytes"
vector 107 MultiCell_Standalone.upf.ppp[0].ppp packetDropIncorrectlyReceived:vector(packetBytes) ETV
attr interpolationmode none
attr recordingmode vector(packetBytes)
attr source packetDropReasonIsIncorrectlyReceived(packetDropped)
attr title "packet drop: incorrectly received, packetBytes"
vector 108 MultiCell_Standalone.upf.ppp[0].ppp packetDropInterfaceDown:vector(packetBytes) ETV
attr interpolationmode none
attr recordingmode vector(packetBytes)
attr source packetDropReasonIsInterfaceDown(packetDropped)
attr title "packet drop: interface down, packetBytes"
vector 109 MultiCell_Standalone.upf.ppp[0].ppp rcvdPkFromHl:vector(packetBytes) ETV
attr interpolationmode none
attr recordingmode vector(packetBytes)
attr source packetReceivedFromUpper
attr title "packets received from higher layer, packetBytes"
vector 110 MultiCell_Standalone.upf.ppp[0].ppp passedUpPk:vector(packetBytes) ETV
attr interpolationmode none
attr recordingmode vector(packetBytes)
attr source packetSentToUpper
attr title "packets passed to higher layer, packetBytes"
vector 111 MultiCell_Standalone.upf.ppp[0] packetDropInterfaceDown:vector(packetBytes) ETV
attr interpolationmode none
attr recordingmode vector(packetBytes)
attr source packetDropReasonIsInterfaceDown(packetDropped)
attr title "packet drops: interface down, packetBytes"
vector 112 MultiCell_Standalone.upf.ppp[0] packetDropNoCarrier:vector(packetBytes) ETV
attr interpolationmode none
attr recordingmode vector(packetBytes)
attr source packetDropReasonIsNoCarrier(packetDropped)
attr title "packet drops: no carrier, packetBytes"
vector 113 MultiCell_Standalone.upf.ipv4.ip packetDropAddressResolutionFailed:vector(packetBytes) ETV
attr interpolationmode none
attr recordingmode vector(packetBytes)
attr source packetDropReasonIsAddressResolutionFailed(packetDropped)
attr title "packet drop: address resolution failed, packetBytes"
vector 114 MultiCell_Standalone.upf.ipv4.ip packetDropHopLimitReached:vector(packetBytes) ETV
attr interpolationmode none
attr recordingmode vector(packetBytes)
attr source packetDropReasonIsHopLimitReached(packetDropped)
attr title "packet drop: hop limit reached, packetBytes"
vector 115 MultiCell_Standalone.upf.ipv4.ip packetDropForwardingDisabled:vector(packetBytes) ETV
attr interpolationmode none
attr recordingmode vector(packetBytes)
attr source packetDropReasonIsForwardingDisabled(packetDropped)
attr title "packet drop: forwarding disabled, packetBytes"
vector 116 MultiCell_Standalone.upf.ipv4.ip packetDropNoInterfaceFound:vector(packetBytes) ETV
attr interpolationmode none
attr recordingmode vector(packetBytes)
attr source packetDropReasonIsNoInterfaceFound(packetDropped)
attr title "packet drop: no interface found, packetBytes"
vector 117 MultiCell_Standalone.upf.ipv4.ip packetDropNoRouteFound:vector(packetBytes) ETV
attr interpolationmode none
attr recordingmode vector(packetBytes)
attr source packetDropReasonIsNoRouteFound(packetDropped)
attr title "packet drop: no route found, packetBytes"
vector 118 MultiCell_Standalone.upf.ipv4.ip packetDropUndefined:vector(packetBytes) ETV
attr interpolationmode none
attr recordingmode vector(packetBytes)
attr source packetDropReasonIsUndefined(packetDropped)
attr title "packet drop: undefined, packetBytes"
vector 119 MultiCell_Standalone.upf.ipv4.arp arpRequestSent:vector(packetBytes) ETV
attr recordingmode vector(packetBytes)
attr source arpRequestSent
attr title "ARP request sent, packetBytes"
vector 120 MultiCell_Standalone.upf.ipv4.arp arpReplySent:vector(packetBytes) ETV
attr recordingmode vector(packetBytes)
attr source arpReplySent
attr title "ARP replies sent, packetBytes"
vector 121 MultiCell_Standalone.upf.pppIf.queue queueLength:vector ETV
attr autoWarmupFilter false
attr interpolationmode sample-hold
attr recordingmode vector
attr source "warmup(atomic(constant0(packetPushEnded) + count(packetPushStarted) - count(packetPulled) - count(packetRemoved) - count(packetDropped)))"
attr title "queue length"
attr unit pk
vector 122 MultiCell_Standalone.upf.pppIf.queue queueBitLength:vector ETV
attr autoWarmupFilter false
attr interpolationmode sample-hold
attr recordingmode vector
attr source "warmup(atomic(constant0(packetPushEnded) + sum(packetLength(packetPushStarted)) - sum(packetLength(packetPulled)) - sum(packetLength(packetRemoved)) - sum(packetLength(packetDropped))))"
attr title "queue bit length"
attr unit b
vector 123 MultiCell_Standalone.upf.pppIf.queue queueingTime:vector ETV
attr interpolationmode none
attr recordingmode vector
attr source queueingTime(packetPulled)
attr title "queueing times"
attr unit s
vector 124 MultiCell_Standalone.upf.pppIf.queue incomingPacketLengths:vector ETV
attr interpolationmode none
attr recordingmode vector
attr source packetLength(packetPushStarted)
attr title "incoming packet lengths"
attr unit b
vector 125 MultiCell_Standalone.upf.pppIf.queue incomingDataRate:vector ETV
attr interpolationmode linear
attr recordingmode vector
attr source throughput(packetPushStarted)
attr title "incoming datarate"
attr unit bps
vector 126 MultiCell_Standalone.upf.pppIf.queue outgoingPacketLengths:vector ETV
attr interpolationmode none
attr recordingmode vector
attr source packetLength(packetPulled)
attr title "outgoing packet lengths"
attr unit b
vector 127 MultiCell_Standalone.upf.pppIf.queue outgoingDataRate:vector ETV
attr interpolationmode linear
attr recordingmode vector
attr source throughput(packetPulled)
attr title "outgoing datarate"
attr unit bps
vector 128 MultiCell_Standalone.upf.pppIf.queue droppedPacketLengthsQueueOverflow:vector ETV
attr interpolationmode none
attr recordingmode vector
attr source packetLength(packetDropReasonIsQueueOverflow(packetDropped))
attr title "dropped packet lengths: queue overflow"
attr unit b
vector 129 MultiCell_Standalone.upf.pppIf.queue flowQueueingTime:vector ETV
attr interpolationmode none
attr recordingmode vector
attr source queueingTime(demuxFlow(packetPulled))
attr title "flow queueing times"
attr unit s
vector 130 MultiCell_Standalone.upf.pppIf.queue flowIncomingDataRate:vector ETV
attr interpolationmode linear
attr recordingmode vector
attr source throughput(flowPacketLength(demuxFlow(packetPushStarted)))
attr title "flow specific incoming data rate"
attr unit bps
vector 131 MultiCell_Standalone.upf.pppIf.queue flowOutgoingDataRate:vector ETV
attr interpolationmode linear
attr recordingmode vector
attr source throughput(flowPacketLength(demuxFlow(packetPulled)))
attr title "flow specific outgoing data rate"
attr unit bps
vector 132 MultiCell_Standalone.upf.pppIf.ppp transmissionState:vector ETV
attr interpolationmode sample-hold
attr recordingmode vector
attr source transmissionStateChanged
attr title "tx state"
vector 133 MultiCell_Standalone.upf.pppIf.ppp txPk:vector(packetBytes) ETV
attr interpolationmode none
attr recordingmode vector(packetBytes)
attr source packetSentToLower
attr title "packets transmitted, packetBytes"
vector 134 MultiCell_Standalone.upf.pppIf.ppp rxPkOk:vector(packetBytes) ETV
attr interpolationmode none
attr recordingmode vector(packetBytes)
attr source rxPkOk
attr title "packets received OK, packetBytes"
vector 135 MultiCell_Standalone.upf.pppIf.ppp packetDropIncorrectlyReceived:vector(packetBytes) ETV
attr interpolationmode none
attr recordingmode vector(packetBytes)
attr source packetDropReasonIsIncorrectlyReceived(packetDropped)
attr title "packet drop: incorrectly received, packetBytes"
vector 136 MultiCell_Standalone.upf.pppIf.ppp packetDropInterfaceDown:vector(packetBytes) ETV
attr interpolationmode none
attr recordingmode vector(packetBytes)
attr source packetDropReasonIsInterfaceDown(packetDropped)
attr title "packet drop: interface down, packetBytes"
vector 137 MultiCell_Standalone.upf.pppIf.ppp rcvdPkFromHl:vector(packetBytes) ETV
attr interpolationmode none
attr recordingmode vector(packetBytes)
attr source packetReceivedFromUpper
attr title "packets received from higher layer, packetBytes"
vector 138 MultiCell_Standalone.upf.pppIf.ppp passedUpPk:vector(packetBytes) ETV
attr interpolationmode none
attr recordingmode vector(packetBytes)
attr source packetSentToUpper
attr title "packets passed to higher layer, packetBytes"
vector 139 MultiCell_Standalone.upf.pppIf packetDropInterfaceDown:vector(packetBytes) ETV
attr interpolationmode none
attr recordingmode vector(packetBytes)
attr source packetDropReasonIsInterfaceDown(packetDropped)
attr title "packet drops: interface down, packetBytes"
vector 140 MultiCell_Standalone.upf.pppIf packetDropNoCarrier:vector(packetBytes) ETV
attr interpolationmode none
attr recordingmode vector(packetBytes)
attr source packetDropReasonIsNoCarrier(packetDropped)
attr title "packet drops: no carrier, packetBytes"
vector 141 MultiCell_Standalone.upf.udp packetSent:vector(packetBytes) ETV
attr interpolationmode none
attr recordingmode vector(packetBytes)
attr source packetSent
attr title "packets sent, packetBytes"
vector 142 MultiCell_Standalone.upf.udp packetReceived:vector(packetBytes) ETV
attr interpolationmode none
attr recordingmode vector(packetBytes)
attr source packetReceived
attr title "packets received, packetBytes"
vector 143 MultiCell_Standalone.upf.udp passedUpPk:vector(count) ETV
attr interpolationmode none
attr recordingmode vector(count)
attr source packetSentToUpper
attr title "packets passed up, count"
vector 144 MultiCell_Standalone.upf.udp droppedPkWrongPort:vector(count) ETV
attr interpolationmode none
attr recordingmode vector(count)
attr source packetDropReasonIsNoPortFound(packetDropped)
attr title "packets dropped (wrong port), count"
vector 145 MultiCell_Standalone.upf.udp droppedPkBadChecksum:vector(count) ETV
attr interpolationmode none
attr recordingmode vector(count)
attr source packetDropReasonIsIncorrectlyReceived(packetDropped)
attr title "packets dropped (checksum error), count"
vector 146 MultiCell_Standalone.iUpf.lo[0].lo rcvdPkFromHl:vector(packetBytes) ETV
attr interpolationmode none
attr recordingmode vector(packetBytes)
attr source packetReceivedFromUpper
attr title "packets received from higher layer, packetBytes"
vector 147 MultiCell_Standalone.iUpf.lo[0].lo passedUpPk:vector(packetBytes) ETV
attr interpolationmode none
attr recordingmode vector(packetBytes)
attr source packetSentToUpper
attr title "packets passed to higher layer, packetBytes"
vector 148 MultiCell_Standalone.iUpf.lo[0] packetDropInterfaceDown:vector(packetBytes) ETV
attr interpolationmode none
attr recordingmode vector(packetBytes)
attr source packetDropReasonIsInterfaceDown(packetDropped)
attr title "packet drops: interface down, packetBytes"
vector 149 MultiCell_Standalone.iUpf.lo[0] packetDropNoCarrier:vector(packetBytes) ETV
attr interpolationmode none
attr recordingmode vector(packetBytes)
attr source packetDropReasonIsNoCarrier(packetDropped)
attr title "packet drops: no carrier, packetBytes"
vector 150 MultiCell_Standalone.iUpf.ppp[0].queue queueLength:vector ETV
attr autoWarmupFilter false
attr interpolationmode sample-hold
attr recordingmode vector
attr source "warmup(atomic(constant0(packetPushEnded) + count(packetPushStarted) - count(packetPulled) - count(packetRemoved) - count(packetDropped)))"
attr title "queue length"
attr unit pk
vector 151 MultiCell_Standalone.iUpf.ppp[0].queue queueBitLength:vector ETV
attr autoWarmupFilter false
attr interpolationmode sample-hold
attr recordingmode vector
attr source "warmup(atomic(constant0(packetPushEnded) + sum(packetLength(packetPushStarted)) - sum(packetLength(packetPulled)) - sum(packetLength(packetRemoved)) - sum(packetLength(packetDropped))))"
attr title "queue bit length"
attr unit b
vector 152 MultiCell_Standalone.iUpf.ppp[0].queue queueingTime:vector ETV
attr interpolationmode none
attr recordingmode vector
attr source queueingTime(packetPulled)
attr title "queueing times"
attr unit s
vector 153 MultiCell_Standalone.iUpf.ppp[0].queue incomingPacketLengths:vector ETV
attr interpolationmode none
attr recordingmode vector
attr source packetLength(packetPushStarted)
attr title "incoming packet lengths"
attr unit b
vector 154 MultiCell_Standalone.iUpf.ppp[0].queue incomingDataRate:vector ETV
attr interpolationmode linear
attr recordingmode vector
attr source throughput(packetPushStarted)
attr title "incoming datarate"
attr unit bps
vector 155 MultiCell_Standalone.iUpf.ppp[0].queue outgoingPacketLengths:vector ETV
attr interpolationmode none
attr recordingmode vector
attr source packetLength(packetPulled)
attr title "outgoing packet lengths"
attr unit b
vector 156 MultiCell_Standalone.iUpf.ppp[0].queue outgoingDataRate:vector ETV
attr interpolationmode linear
attr recordingmode vector
attr source throughput(packetPulled)
attr title "outgoing datarate"
attr unit bps
vector 157 MultiCell_Standalone.iUpf.ppp[0].queue droppedPacketLengthsQueueOverflow:vector ETV
attr interpolationmode none
attr recordingmode vector
attr source packetLength(packetDropReasonIsQueueOverflow(packetDropped))
attr title "dropped packet lengths: queue overflow"
attr unit b
vector 158 MultiCell_Standalone.iUpf.ppp[0].queue flowQueueingTime:vector ETV
attr interpolationmode none
attr recordingmode vector
attr source queueingTime(demuxFlow(packetPulled))
attr title "flow queueing times"
attr unit s
vector 159 MultiCell_Standalone.iUpf.ppp[0].queue flowIncomingDataRate:vector ETV
attr interpolationmode linear
attr recordingmode vector
attr source throughput(flowPacketLength(demuxFlow(packetPushStarted)))
attr title "flow specific incoming data rate"
attr unit bps
vector 160 MultiCell_Standalone.iUpf.ppp[0].queue flowOutgoingDataRate:vector ETV
attr interpolationmode linear
attr recordingmode vector
attr source throughput(flowPacketLength(demuxFlow(packetPulled)))
attr title "flow specific outgoing data rate"
attr unit bps
vector 161 MultiCell_Standalone.iUpf.ppp[0].ppp transmissionState:vector ETV
attr interpolationmode sample-hold
attr recordingmode vector
attr source transmissionStateChanged
attr title "tx state"
vector 162 MultiCell_Standalone.iUpf.ppp[0].ppp txPk:vector(packetBytes) ETV
attr interpolationmode none
attr recordingmode vector(packetBytes)
attr source packetSentToLower
attr title "packets transmitted, packetBytes"
vector 163 MultiCell_Standalone.iUpf.ppp[0].ppp rxPkOk:vector(packetBytes) ETV
attr interpolationmode none
attr recordingmode vector(packetBytes)
attr source rxPkOk
attr title "packets received OK, packetBytes"
vector 164 MultiCell_Standalone.iUpf.ppp[0].ppp packetDropIncorrectlyReceived:vector(packetBytes) ETV
attr interpolationmode none
attr recordingmode vector(packetBytes)
attr source packetDropReasonIsIncorrectlyReceived(packetDropped)
attr title "packet drop: incorrectly received, packetBytes"
vector 165 MultiCell_Standalone.iUpf.ppp[0].ppp packetDropInterfaceDown:vector(packetBytes) ETV
attr interpolationmode none
attr recordingmode vector(packetBytes)
attr source packetDropReasonIsInterfaceDown(packetDropped)
attr title "packet drop: interface down, packetBytes"
vector 166 MultiCell_Standalone.iUpf.ppp[0].ppp rcvdPkFromHl:vector(packetBytes) ETV
attr interpolationmode none
attr recordingmode vector(packetBytes)
attr source packetReceivedFromUpper
attr title "packets received from higher layer, packetBytes"
vector 167 MultiCell_Standalone.iUpf.ppp[0].ppp passedUpPk:vector(packetBytes) ETV
attr interpolationmode none
attr recordingmode vector(packetBytes)
attr source packetSentToUpper
attr title "packets passed to higher layer, packetBytes"
vector 168 MultiCell_Standalone.iUpf.ppp[0] packetDropInterfaceDown:vector(packetBytes) ETV
attr interpolationmode none
attr recordingmode vector(packetBytes)
attr source packetDropReasonIsInterfaceDown(packetDropped)
attr title "packet drops: interface down, packetBytes"
vector 169 MultiCell_Standalone.iUpf.ppp[0] packetDropNoCarrier:vector(packetBytes) ETV
attr interpolationmode none
attr recordingmode vector(packetBytes)
attr source packetDropReasonIsNoCarrier(packetDropped)
attr title "packet drops: no carrier, packetBytes"
vector 170 MultiCell_Standalone.iUpf.ppp[1].queue queueLength:vector ETV
attr autoWarmupFilter false
attr interpolationmode sample-hold
attr recordingmode vector
attr source "warmup(atomic(constant0(packetPushEnded) + count(packetPushStarted) - count(packetPulled) - count(packetRemoved) - count(packetDropped)))"
attr title "queue length"
attr unit pk
vector 171 MultiCell_Standalone.iUpf.ppp[1].queue queueBitLength:vector ETV
attr autoWarmupFilter false
attr interpolationmode sample-hold
attr recordingmode vector
attr source "warmup(atomic(constant0(packetPushEnded) + sum(packetLength(packetPushStarted)) - sum(packetLength(packetPulled)) - sum(packetLength(packetRemoved)) - sum(packetLength(packetDropped))))"
attr title "queue bit length"
attr unit b
vector 172 MultiCell_Standalone.iUpf.ppp[1].queue queueingTime:vector ETV
attr interpolationmode none
attr recordingmode vector
attr source queueingTime(packetPulled)
attr title "queueing times"
attr unit s
vector 173 MultiCell_Standalone.iUpf.ppp[1].queue incomingPacketLengths:vector ETV
attr interpolationmode none
attr recordingmode vector
attr source packetLength(packetPushStarted)
attr title "incoming packet lengths"
attr unit b
vector 174 MultiCell_Standalone.iUpf.ppp[1].queue incomingDataRate:vector ETV
attr interpolationmode linear
attr recordingmode vector
attr source throughput(packetPushStarted)
attr title "incoming datarate"
attr unit bps
vector 175 MultiCell_Standalone.iUpf.ppp[1].queue outgoingPacketLengths:vector ETV
attr interpolationmode none
attr recordingmode vector
attr source packetLength(packetPulled)
attr title "outgoing packet lengths"
attr unit b
vector 176 MultiCell_Standalone.iUpf.ppp[1].queue outgoingDataRate:vector ETV
attr interpolationmode linear
attr recordingmode vector
attr source throughput(packetPulled)
attr title "outgoing datarate"
attr unit bps
vector 177 MultiCell_Standalone.iUpf.ppp[1].queue droppedPacketLengthsQueueOverflow:vector ETV
attr interpolationmode none
attr recordingmode vector
attr source packetLength(packetDropReasonIsQueueOverflow(packetDropped))
attr title "dropped packet lengths: queue overflow"
attr unit b
vector 178 MultiCell_Standalone.iUpf.ppp[1].queue flowQueueingTime:vector ETV
attr interpolationmode none
attr recordingmode vector
attr source queueingTime(demuxFlow(packetPulled))
attr title "flow queueing times"
attr unit s
vector 179 MultiCell_Standalone.iUpf.ppp[1].queue flowIncomingDataRate:vector ETV
attr interpolationmode linear
attr recordingmode vector
attr source throughput(flowPacketLength(demuxFlow(packetPushStarted)))
attr title "flow specific incoming data rate"
attr unit bps
vector 180 MultiCell_Standalone.iUpf.ppp[1].queue flowOutgoingDataRate:vector ETV
attr interpolationmode linear
attr recordingmode vector
attr source throughput(flowPacketLength(demuxFlow(packetPulled)))
attr title "flow specific outgoing data rate"
attr unit bps
vector 181 MultiCell_Standalone.iUpf.ppp[1].ppp transmissionState:vector ETV
attr interpolationmode sample-hold
attr recordingmode vector
attr source transmissionStateChanged
attr title "tx state"
vector 182 MultiCell_Standalone.iUpf.ppp[1].ppp txPk:vector(packetBytes) ETV
attr interpolationmode none
attr recordingmode vector(packetBytes)
attr source packetSentToLower
attr title "packets transmitted, packetBytes"
vector 183 MultiCell_Standalone.iUpf.ppp[1].ppp rxPkOk:vector(packetBytes) ETV
attr interpolationmode none
attr recordingmode vector(packetBytes)
attr source rxPkOk
attr title "packets received OK, packetBytes"
vector 184 MultiCell_Standalone.iUpf.ppp[1].ppp packetDropIncorrectlyReceived:vector(packetBytes) ETV
attr interpolationmode none
attr recordingmode vector(packetBytes)
attr source packetDropReasonIsIncorrectlyReceived(packetDropped)
attr title "packet drop: incorrectly received, packetBytes"
vector 185 MultiCell_Standalone.iUpf.ppp[1].ppp packetDropInterfaceDown:vector(packetBytes) ETV
attr interpolationmode none
attr recordingmode vector(packetBytes)
attr source packetDropReasonIsInterfaceDown(packetDropped)
attr title "packet drop: interface down, packetBytes"
vector 186 MultiCell_Standalone.iUpf.ppp[1].ppp rcvdPkFromHl:vector(packetBytes) ETV
attr interpolationmode none
attr recordingmode vector(packetBytes)
attr source packetReceivedFromUpper
attr title "packets received from higher layer, packetBytes"
vector 187 MultiCell_Standalone.iUpf.ppp[1].ppp passedUpPk:vector(packetBytes) ETV
attr interpolationmode none
attr recordingmode vector(packetBytes)
attr source packetSentToUpper
attr title "packets passed to higher layer, packetBytes"
vector 188 MultiCell_Standalone.iUpf.ppp[1] packetDropInterfaceDown:vector(packetBytes) ETV
attr interpolationmode none
attr recordingmode vector(packetBytes)
attr source packetDropReasonIsInterfaceDown(packetDropped)
attr title "packet drops: interface down, packetBytes"
vector 189 MultiCell_Standalone.iUpf.ppp[1] packetDropNoCarrier:vector(packetBytes) ETV
attr interpolationmode none
attr recordingmode vector(packetBytes)
attr source packetDropReasonIsNoCarrier(packetDropped)
attr title "packet drops: no carrier, packetBytes"
vector 190 MultiCell_Standalone.iUpf.ppp[2].queue queueLength:vector ETV
attr autoWarmupFilter false
attr interpolationmode sample-hold
attr recordingmode vector
attr source "warmup(atomic(constant0(packetPushEnded) + count(packetPushStarted) - count(packetPulled) - count(packetRemoved) - count(packetDropped)))"
attr title "queue length"
attr unit pk
vector 191 MultiCell_Standalone.iUpf.ppp[2].queue queueBitLength:vector ETV
attr autoWarmupFilter false
attr interpolationmode sample-hold
attr recordingmode vector
attr source "warmup(atomic(constant0(packetPushEnded) + sum(packetLength(packetPushStarted)) - sum(packetLength(packetPulled)) - sum(packetLength(packetRemoved)) - sum(packetLength(packetDropped))))"
attr title "queue bit length"
attr unit b
vector 192 MultiCell_Standalone.iUpf.ppp[2].queue queueingTime:vector ETV
attr interpolationmode none
attr recordingmode vector
attr source queueingTime(packetPulled)
attr title "queueing times"
attr unit s
vector 193 MultiCell_Standalone.iUpf.ppp[2].queue incomingPacketLengths:vector ETV
attr interpolationmode none
attr recordingmode vector
attr source packetLength(packetPushStarted)
attr title "incoming packet lengths"
attr unit b
vector 194 MultiCell_Standalone.iUpf.ppp[2].queue incomingDataRate:vector ETV
attr interpolationmode linear
attr recordingmode vector
attr source throughput(packetPushStarted)
attr title "incoming datarate"
attr unit bps
vector 195 MultiCell_Standalone.iUpf.ppp[2].queue outgoingPacketLengths:vector ETV
attr interpolationmode none
attr recordingmode vector
attr source packetLength(packetPulled)
attr title "outgoing packet lengths"
attr unit b
vector 196 MultiCell_Standalone.iUpf.ppp[2].queue outgoingDataRate:vector ETV
attr interpolationmode linear
attr recordingmode vector
attr source throughput(packetPulled)
attr title "outgoing datarate"
attr unit bps
vector 197 MultiCell_Standalone.iUpf.ppp[2].queue droppedPacketLengthsQueueOverflow:vector ETV
attr interpolationmode none
attr recordingmode vector
attr source packetLength(packetDropReasonIsQueueOverflow(packetDropped))
attr title "dropped packet lengths: queue overflow"
attr unit b
vector 198 MultiCell_Standalone.iUpf.ppp[2].queue flowQueueingTime:vector ETV
attr interpolationmode none
attr recordingmode vector
attr source queueingTime(demuxFlow(packetPulled))
attr title "flow queueing times"
attr unit s
vector 199 MultiCell_Standalone.iUpf.ppp[2].queue flowIncomingDataRate:vector ETV
attr interpolationmode linear
attr recordingmode vector
attr source throughput(flowPacketLength(demuxFlow(packetPushStarted)))
attr title "flow specific incoming data rate"
attr unit bps
vector 200 MultiCell_Standalone.iUpf.ppp[2].queue flowOutgoingDataRate:vector ETV
attr interpolationmode linear
attr recordingmode vector
attr source throughput(flowPacketLength(demuxFlow(packetPulled)))
attr title "flow specific outgoing data rate"
attr unit bps
vector 201 MultiCell_Standalone.iUpf.ppp[2].ppp transmissionState:vector ETV
attr interpolationmode sample-hold
attr recordingmode vector
attr source transmissionStateChanged
attr title "tx state"
vector 202 MultiCell_Standalone.iUpf.ppp[2].ppp txPk:vector(packetBytes) ETV
attr interpolationmode none
attr recordingmode vector(packetBytes)
attr source packetSentToLower
attr title "packets transmitted, packetBytes"
vector 203 MultiCell_Standalone.iUpf.ppp[2].ppp rxPkOk:vector(packetBytes) ETV
attr interpolationmode none
attr recordingmode vector(packetBytes)
attr source rxPkOk
attr title "packets received OK, packetBytes"
vector 204 MultiCell_Standalone.iUpf.ppp[2].ppp packetDropIncorrectlyReceived:vector(packetBytes) ETV
attr interpolationmode none
attr recordingmode vector(packetBytes)
attr source packetDropReasonIsIncorrectlyReceived(packetDropped)
attr title "packet drop: incorrectly received, packetBytes"
vector 205 MultiCell_Standalone.iUpf.ppp[2].ppp packetDropInterfaceDown:vector(packetBytes) ETV
attr interpolationmode none
attr recordingmode vector(packetBytes)
attr source packetDropReasonIsInterfaceDown(packetDropped)
attr title "packet drop: interface down, packetBytes"
vector 206 MultiCell_Standalone.iUpf.ppp[2].ppp rcvdPkFromHl:vector(packetBytes) ETV
attr interpolationmode none
attr recordingmode vector(packetBytes)
attr source packetReceivedFromUpper
attr title "packets received from higher layer, packetBytes"
vector 207 MultiCell_Standalone.iUpf.ppp[2].ppp passedUpPk:vector(packetBytes) ETV
attr interpolationmode none
attr recordingmode vector(packetBytes)
attr source packetSentToUpper
attr title "packets passed to higher layer, packetBytes"
vector 208 MultiCell_Standalone.iUpf.ppp[2] packetDropInterfaceDown:vector(packetBytes) ETV
attr interpolationmode none
attr recordingmode vector(packetBytes)
attr source packetDropReasonIsInterfaceDown(packetDropped)
attr title "packet drops: interface down, packetBytes"
vector 209 MultiCell_Standalone.iUpf.ppp[2] packetDropNoCarrier:vector(packetBytes) ETV
attr interpolationmode none
attr recordingmode vector(packetBytes)
attr source packetDropReasonIsNoCarrier(packetDropped)
attr title "packet drops: no carrier, packetBytes"
vector 210 MultiCell_Standalone.iUpf.ipv4.ip packetDropAddressResolutionFailed:vector(packetBytes) ETV
attr interpolationmode none
attr recordingmode vector(packetBytes)
attr source packetDropReasonIsAddressResolutionFailed(packetDropped)
attr title "packet drop: address resolution failed, packetBytes"
vector 211 MultiCell_Standalone.iUpf.ipv4.ip packetDropHopLimitReached:vector(packetBytes) ETV
attr interpolationmode none
attr recordingmode vector(packetBytes)
attr source packetDropReasonIsHopLimitReached(packetDropped)
attr title "packet drop: hop limit reached, packetBytes"
vector 212 MultiCell_Standalone.iUpf.ipv4.ip packetDropForwardingDisabled:vector(packetBytes) ETV
attr interpolationmode none
attr recordingmode vector(packetBytes)
attr source packetDropReasonIsForwardingDisabled(packetDropped)
attr title "packet drop: forwarding disabled, packetBytes"
vector 213 MultiCell_Standalone.iUpf.ipv4.ip packetDropNoInterfaceFound:vector(packetBytes) ETV
attr interpolationmode none
attr recordingmode vector(packetBytes)
attr source packetDropReasonIsNoInterfaceFound(packetDropped)
attr title "packet drop: no interface found, packetBytes"
vector 214 MultiCell_Standalone.iUpf.ipv4.ip packetDropNoRouteFound:vector(packetBytes) ETV
attr interpolationmode none
attr recordingmode vector(packetBytes)
attr source packetDropReasonIsNoRouteFound(packetDropped)
attr title "packet drop: no route found, packetBytes"
vector 215 MultiCell_Standalone.iUpf.ipv4.ip packetDropUndefined:vector(packetBytes) ETV
attr interpolationmode none
attr recordingmode vector(packetBytes)
attr source packetDropReasonIsUndefined(packetDropped)
attr title "packet drop: undefined, packetBytes"
vector 216 MultiCell_Standalone.iUpf.ipv4.arp arpRequestSent:vector(packetBytes) ETV
attr recordingmode vector(packetBytes)
attr source arpRequestSent
attr title "ARP request sent, packetBytes"
vector 217 MultiCell_Standalone.iUpf.ipv4.arp arpReplySent:vector(packetBytes) ETV
attr recordingmode vector(packetBytes)
attr source arpReplySent
attr title "ARP replies sent, packetBytes"
vector 218 MultiCell_Standalone.iUpf.pppIf.queue queueLength:vector ETV
attr autoWarmupFilter false
attr interpolationmode sample-hold
attr recordingmode vector
attr source "warmup(atomic(constant0(packetPushEnded) + count(packetPushStarted) - count(packetPulled) - count(packetRemoved) - count(packetDropped)))"
attr title "queue length"
attr unit pk
vector 219 MultiCell_Standalone.iUpf.pppIf.queue queueBitLength:vector ETV
attr autoWarmupFilter false
attr interpolationmode sample-hold
attr recordingmode vector
attr source "warmup(atomic(constant0(packetPushEnded) + sum(packetLength(packetPushStarted)) - sum(packetLength(packetPulled)) - sum(packetLength(packetRemoved)) - sum(packetLength(packetDropped))))"
attr title "queue bit length"
attr unit b
vector 220 MultiCell_Standalone.iUpf.pppIf.queue queueingTime:vector ETV
attr interpolationmode none
attr recordingmode vector
attr source queueingTime(packetPulled)
attr title "queueing times"
attr unit s
vector 221 MultiCell_Standalone.iUpf.pppIf.queue incomingPacketLengths:vector ETV
attr interpolationmode none
attr recordingmode vector
attr source packetLength(packetPushStarted)
attr title "incoming packet lengths"
attr unit b
vector 222 MultiCell_Standalone.iUpf.pppIf.queue incomingDataRate:vector ETV
attr interpolationmode linear
attr recordingmode vector
attr source throughput(packetPushStarted)
attr title "incoming datarate"
attr unit bps
vector 223 MultiCell_Standalone.iUpf.pppIf.queue outgoingPacketLengths:vector ETV
attr interpolationmode none
attr recordingmode vector
attr source packetLength(packetPulled)
attr title "outgoing packet lengths"
attr unit b
vector 224 MultiCell_Standalone.iUpf.pppIf.queue outgoingDataRate:vector ETV
attr interpolationmode linear
attr recordingmode vector
attr source throughput(packetPulled)
attr title "outgoing datarate"
attr unit bps
vector 225 MultiCell_Standalone.iUpf.pppIf.queue droppedPacketLengthsQueueOverflow:vector ETV
attr interpolationmode none
attr recordingmode vector
attr source packetLength(packetDropReasonIsQueueOverflow(packetDropped))
attr title "dropped packet lengths: queue overflow"
attr unit b
vector 226 MultiCell_Standalone.iUpf.pppIf.queue flowQueueingTime:vector ETV
attr interpolationmode none
attr recordingmode vector
attr source queueingTime(demuxFlow(packetPulled))
attr title "flow queueing times"
attr unit s
vector 227 MultiCell_Standalone.iUpf.pppIf.queue flowIncomingDataRate:vector ETV
attr interpolationmode linear
attr recordingmode vector
attr source throughput(flowPacketLength(demuxFlow(packetPushStarted)))
attr title "flow specific incoming data rate"
attr unit bps
vector 228 MultiCell_Standalone.iUpf.pppIf.queue flowOutgoingDataRate:vector ETV
attr interpolationmode linear
attr recordingmode vector
attr source throughput(flowPacketLength(demuxFlow(packetPulled)))
attr title "flow specific outgoing data rate"
attr unit bps
vector 229 MultiCell_Standalone.iUpf.pppIf.ppp transmissionState:vector ETV
attr interpolationmode sample-hold
attr recordingmode vector
attr source transmissionStateChanged
attr title "tx state"
vector 230 MultiCell_Standalone.iUpf.pppIf.ppp txPk:vector(packetBytes) ETV
attr interpolationmode none
attr recordingmode vector(packetBytes)
attr source packetSentToLower
attr title "packets transmitted, packetBytes"
vector 231 MultiCell_Standalone.iUpf.pppIf.ppp rxPkOk:vector(packetBytes) ETV
attr interpolationmode none
attr recordingmode vector(packetBytes)
attr source rxPkOk
attr title "packets received OK, packetBytes"
vector 232 MultiCell_Standalone.iUpf.pppIf.ppp packetDropIncorrectlyReceived:vector(packetBytes) ETV
attr interpolationmode none
attr recordingmode vector(packetBytes)
attr source packetDropReasonIsIncorrectlyReceived(packetDropped)
attr title "packet drop: incorrectly received, packetBytes"
vector 233 MultiCell_Standalone.iUpf.pppIf.ppp packetDropInterfaceDown:vector(packetBytes) ETV
attr interpolationmode none
attr recordingmode vector(packetBytes)
attr source packetDropReasonIsInterfaceDown(packetDropped)
attr title "packet drop: interface down, packetBytes"
vector 234 MultiCell_Standalone.iUpf.pppIf.ppp rcvdPkFromHl:vector(packetBytes) ETV
attr interpolationmode none
attr recordingmode vector(packetBytes)
attr source packetReceivedFromUpper
attr title "packets received from higher layer, packetBytes"
vector 235 MultiCell_Standalone.iUpf.pppIf.ppp passedUpPk:vector(packetBytes) ETV
attr interpolationmode none
attr recordingmode vector(packetBytes)
attr source packetSentToUpper
attr title "packets passed to higher layer, packetBytes"
vector 236 MultiCell_Standalone.iUpf.pppIf packetDropInterfaceDown:vector(packetBytes) ETV
attr interpolationmode none
attr recordingmode vector(packetBytes)
attr source packetDropReasonIsInterfaceDown(packetDropped)
attr title "packet drops: interface down, packetBytes"
vector 237 MultiCell_Standalone.iUpf.pppIf packetDropNoCarrier:vector(packetBytes) ETV
attr interpolationmode none
attr recordingmode vector(packetBytes)
attr source packetDropReasonIsNoCarrier(packetDropped)
attr title "packet drops: no carrier, packetBytes"
vector 238 MultiCell_Standalone.iUpf.udp packetSent:vector(packetBytes) ETV
attr interpolationmode none
attr recordingmode vector(packetBytes)
attr source packetSent
attr title "packets sent, packetBytes"
vector 239 MultiCell_Standalone.iUpf.udp packetReceived:vector(packetBytes) ETV
attr interpolationmode none
attr recordingmode vector(packetBytes)
attr source packetReceived
attr title "packets received, packetBytes"
vector 240 MultiCell_Standalone.iUpf.udp passedUpPk:vector(count) ETV
attr interpolationmode none
attr recordingmode vector(count)
attr source packetSentToUpper
attr title "packets passed up, count"
vector 241 MultiCell_Standalone.iUpf.udp droppedPkWrongPort:vector(count) ETV
attr interpolationmode none
attr recordingmode vector(count)
attr source packetDropReasonIsNoPortFound(packetDropped)
attr title "packets dropped (wrong port), count"
vector 242 MultiCell_Standalone.iUpf.udp droppedPkBadChecksum:vector(count) ETV
attr interpolationmode none
attr recordingmode vector(count)
attr source packetDropReasonIsIncorrectlyReceived(packetDropped)
attr title "packets dropped (checksum error), count"
vector 243 MultiCell_Standalone.gnb1.cellularNic.pdcp receivedPacketFromUpperLayer:vector(packetBytes) ETV
attr interpolationmode none
attr recordingmode vector(packetBytes)
attr source receivedPacketFromUpperLayer
vector 244 MultiCell_Standalone.gnb1.cellularNic.pdcp receivedPacketFromLowerLayer:vector(packetBytes) ETV
attr interpolationmode none
attr recordingmode vector(packetBytes)
attr source receivedPacketFromLowerLayer
vector 245 MultiCell_Standalone.gnb1.cellularNic.pdcp sentPacketToUpperLayer:vector(packetBytes) ETV
attr interpolationmode none
attr recordingmode vector(packetBytes)
attr source sentPacketToUpperLayer
vector 246 MultiCell_Standalone.gnb1.cellularNic.pdcp sentPacketToLowerLayer:vector(packetBytes) ETV
attr interpolationmode none
attr recordingmode vector(packetBytes)
attr source sentPacketToLowerLayer
vector 247 MultiCell_Standalone.gnb1.cellularNic.rlc.tm rlcPacketLossUl:vector ETV
attr recordingmode vector
attr source rlcPacketLossUl
attr title "rlc Packet Loss"
attr unit ""
vector 248 MultiCell_Standalone.gnb1.cellularNic.rlc.tm rlcPacketLossDl:vector ETV
attr recordingmode vector
attr source rlcPacketLossDl
attr title "rlc Packet Loss"
attr unit ""
vector 249 MultiCell_Standalone.gnb1.cellularNic.rlc.tm receivedPacketFromUpperLayer:vector(packetBytes) ETV
attr interpolationmode none
attr recordingmode vector(packetBytes)
attr source receivedPacketFromUpperLayer
vector 250 MultiCell_Standalone.gnb1.cellularNic.rlc.tm receivedPacketFromLowerLayer:vector(packetBytes) ETV
attr interpolationmode none
attr recordingmode vector(packetBytes)
attr source receivedPacketFromLowerLayer
vector 251 MultiCell_Standalone.gnb1.cellularNic.rlc.tm sentPacketToUpperLayer:vector(packetBytes) ETV
attr interpolationmode none
attr recordingmode vector(packetBytes)
attr source sentPacketToUpperLayer
vector 252 MultiCell_Standalone.gnb1.cellularNic.rlc.tm sentPacketToLowerLayer:vector(packetBytes) ETV
attr interpolationmode none
attr recordingmode vector(packetBytes)
attr source sentPacketToLowerLayer
vector 253 MultiCell_Standalone.gnb1.cellularNic.rlc.um rlcDelayDl:vector ETV
attr recordingmode vector
attr source rlcDelayDl
attr title "Delay at the rlc layer DL"
attr unit s
vector 254 MultiCell_Standalone.gnb1.cellularNic.rlc.um rlcThroughputDl:vector ETV
attr recordingmode vector
attr source rlcThroughputDl
attr title "Throughput at the rlc layer DL"
attr unit Bps
vector 255 MultiCell_Standalone.gnb1.cellularNic.rlc.um rlcDelayUl:vector ETV
attr recordingmode vector
attr source rlcDelayUl
attr title "Delay at the rlc layer UL"
attr unit s
vector 256 MultiCell_Standalone.gnb1.cellularNic.rlc.um rlcThroughputUl:vector ETV
attr recordingmode vector
attr source rlcThroughputUl
attr title "Throughput at the rlc layer UL"
attr unit Bps
vector 257 MultiCell_Standalone.gnb1.cellularNic.rlc.um rlcPacketLossUl:vector ETV
attr recordingmode vector
attr source rlcPacketLossUl
attr title "rlc Packet Loss"
attr unit ""
vector 258 MultiCell_Standalone.gnb1.cellularNic.rlc.um rlcPacketLossDl:vector ETV
attr recordingmode vector
attr source rlcPacketLossDl
attr title "rlc Packet Loss"
attr unit ""
vector 259 MultiCell_Standalone.gnb1.cellularNic.rlc.um rlcPacketLossTotal:vector ETV
attr recordingmode vector
attr source rlcPacketLossTotal
attr title "rlc Packet Loss"
attr unit ""
vector 260 MultiCell_Standalone.gnb1.cellularNic.rlc.um rlcPduDelayDl:vector ETV
attr recordingmode vector
attr source rlcPduDelayDl
attr title "Delay at the rlc layer UL"
attr unit s
vector 261 MultiCell_Standalone.gnb1.cellularNic.rlc.um rlcPduThroughputDl:vector ETV
attr recordingmode vector
attr source rlcPduThroughputDl
attr title "Throughput at the rlc layer DL"
attr unit Bps
vector 262 MultiCell_Standalone.gnb1.cellularNic.rlc.um rlcPduDelayUl:vector ETV
attr recordingmode vector
attr source rlcPduDelayUl
attr title "Delay at the rlc layer UL"
attr unit s
vector 263 MultiCell_Standalone.gnb1.cellularNic.rlc.um rlcPduThroughputUl:vector ETV
attr recordingmode vector
attr source rlcPduThroughputUl
attr title "Throughput at the rlc layer UL"
attr unit Bps
vector 264 MultiCell_Standalone.gnb1.cellularNic.rlc.um rlcPduPacketLossUl:vector ETV
attr recordingmode vector
attr source rlcPduPacketLossUl
attr title "rlc Packet Loss"
attr unit ""
vector 265 MultiCell_Standalone.gnb1.cellularNic.rlc.um rlcPduPacketLossDl:vector ETV
attr recordingmode vector
attr source rlcPduPacketLossDl
attr title "rlc Packet Loss"
attr unit ""
vector 266 MultiCell_Standalone.gnb1.cellularNic.rlc.um receivedPacketFromUpperLayer:vector(packetBytes) ETV
attr interpolationmode none
attr recordingmode vector(packetBytes)
attr source receivedPacketFromUpperLayer
vector 267 MultiCell_Standalone.gnb1.cellularNic.rlc.um receivedPacketFromLowerLayer:vector(packetBytes) ETV
attr interpolationmode none
attr recordingmode vector(packetBytes)
attr source receivedPacketFromLowerLayer
vector 268 MultiCell_Standalone.gnb1.cellularNic.rlc.um sentPacketToUpperLayer:vector(packetBytes) ETV
attr interpolationmode none
attr recordingmode vector(packetBytes)
attr source sentPacketToUpperLayer
vector 269 MultiCell_Standalone.gnb1.cellularNic.rlc.um sentPacketToLowerLayer:vector(packetBytes) ETV
attr interpolationmode none
attr recordingmode vector(packetBytes)
attr source sentPacketToLowerLayer
vector 270 MultiCell_Standalone.gnb1.cellularNic.rlc.um rlcDelayD2D:vector ETV
attr recordingmode vector
attr source rlcDelayD2D
attr title "Delay at the rlc layer D2D"
attr unit s
vector 271 MultiCell_Standalone.gnb1.cellularNic.rlc.um rlcThroughputD2D:vector ETV
attr recordingmode vector
attr source rlcThroughputD2D
attr title "Throughput at the rlc layer D2D"
attr unit Bps
vector 272 MultiCell_Standalone.gnb1.cellularNic.rlc.um rlcPacketLossD2D:vector ETV
attr recordingmode vector
attr source rlcPacketLossD2D
attr title "rlc Packet Loss"
attr unit ""
vector 273 MultiCell_Standalone.gnb1.cellularNic.rlc.um rlcCellPacketLossD2D:vector ETV
attr recordingmode vector
attr source rlcCellPacketLossD2D
attr title "rlc Cell Packet Loss"
attr unit ""
vector 274 MultiCell_Standalone.gnb1.cellularNic.rlc.um rlcCellThroughputD2D:vector ETV
attr recordingmode vector
attr source rlcCellThroughputD2D
attr title "Cell Throughput at the rlc layer D2D"
attr unit Bps
vector 275 MultiCell_Standalone.gnb1.cellularNic.rlc.um rlcPduDelayD2D:vector ETV
attr recordingmode vector
attr source rlcPduDelayD2D
attr title "Delay at the rlc layer D2D"
attr unit s
vector 276 MultiCell_Standalone.gnb1.cellularNic.rlc.um rlcPduThroughputD2D:vector ETV
attr recordingmode vector
attr source rlcPduThroughputD2D
attr title "Throughput at the rlc layer D2D"
attr unit Bps
vector 277 MultiCell_Standalone.gnb1.cellularNic.rlc.um rlcPduPacketLossD2D:vector ETV
attr recordingmode vector
attr source rlcPduPacketLossD2D
attr title "rlc Packet Loss"
attr unit ""
vector 278 MultiCell_Standalone.gnb1.cellularNic.mac macDelayDl:vector ETV
attr recordingmode vector
attr source macDelayDl
attr title "Delay at the MAC layer UL"
attr unit s
vector 279 MultiCell_Standalone.gnb1.cellularNic.mac macDelayUl:vector ETV
attr recordingmode vector
attr source macDelayUl
attr title "Delay at the MAC layer UL"
attr unit s
vector 280 MultiCell_Standalone.gnb1.cellularNic.mac harqErrorRateUl:vector ETV
attr recordingmode vector
attr source harqErrorRateUl
attr title "Harq Error Rate Ul"
attr unit ""
vector 281 MultiCell_Standalone.gnb1.cellularNic.mac harqErrorRateDl:vector ETV
attr recordingmode vector
attr source harqErrorRateDl
attr title "Harq Error Rate Dl"
attr unit ""
vector 282 MultiCell_Standalone.gnb1.cellularNic.mac harqTxAttemptsDl:vector ETV
attr recordingmode vector
attr source harqTxAttemptsDl
attr title "Harq Tx Attempts Dl"
attr unit ""
vector 283 MultiCell_Standalone.gnb1.cellularNic.mac harqTxAttemptsUl:vector ETV
attr recordingmode vector
attr source harqTxAttemptsUl
attr title "Harq Tx Attempts Ul"
attr unit ""
vector 284 MultiCell_Standalone.gnb1.cellularNic.mac harqErrorRate_1st_Ul:vector ETV
attr recordingmode vector
attr source harqErrorRate_1st_Ul
attr title "Harq Error Rate Ul (1st tx)"
attr unit ""
vector 285 MultiCell_Standalone.gnb1.cellularNic.mac harqErrorRate_1st_Dl:vector ETV
attr recordingmode vector
attr source harqErrorRate_1st_Dl
attr title "Harq Error Rate Dl (1st tx)"
attr unit ""
vector 286 MultiCell_Standalone.gnb1.cellularNic.mac harqErrorRate_2nd_Ul:vector ETV
attr recordingmode vector
attr source harqErrorRate_2nd_Ul
attr title "Harq Error Rate Ul (2nd tx)"
attr unit ""
vector 287 MultiCell_Standalone.gnb1.cellularNic.mac harqErrorRate_2nd_Dl:vector ETV
attr recordingmode vector
attr source harqErrorRate_2nd_Dl
attr title "Harq Error Rate Dl (2nd tx)"
attr unit ""
vector 288 MultiCell_Standalone.gnb1.cellularNic.mac harqErrorRate_3rd_Ul:vector ETV
attr recordingmode vector
attr source harqErrorRate_3rd_Ul
attr title "Harq Error Rate Ul (3rd tx)"
attr unit ""
vector 289 MultiCell_Standalone.gnb1.cellularNic.mac harqErrorRate_3rd_Dl:vector ETV
attr recordingmode vector
attr source harqErrorRate_3rd_Dl
attr title "Harq Error Rate Dl (3rd tx)"
attr unit ""
vector 290 MultiCell_Standalone.gnb1.cellularNic.mac harqErrorRate_4th_Ul:vector ETV
attr recordingmode vector
attr source harqErrorRate_4th_Ul
attr title "Harq Error Rate Ul (4th tx)"
attr unit ""
vector 291 MultiCell_Standalone.gnb1.cellularNic.mac harqErrorRate_4th_Dl:vector ETV
attr recordingmode vector
attr source harqErrorRate_4th_Dl
attr title "Harq Error Rate Dl (4th tx)"
attr unit ""
vector 292 MultiCell_Standalone.gnb1.cellularNic.mac receivedPacketFromUpperLayer:vector(packetBytes) ETV
attr interpolationmode none
attr recordingmode vector(packetBytes)
attr source receivedPacketFromUpperLayer
vector 293 MultiCell_Standalone.gnb1.cellularNic.mac receivedPacketFromLowerLayer:vector(packetBytes) ETV
attr interpolationmode none
attr recordingmode vector(packetBytes)
attr source receivedPacketFromLowerLayer
vector 294 MultiCell_Standalone.gnb1.cellularNic.mac sentPacketToUpperLayer:vector(packetBytes) ETV
attr interpolationmode none
attr recordingmode vector(packetBytes)
attr source sentPacketToUpperLayer
vector 295 MultiCell_Standalone.gnb1.cellularNic.mac sentPacketToLowerLayer:vector(packetBytes) ETV
attr interpolationmode none
attr recordingmode vector(packetBytes)
attr source sentPacketToLowerLayer
vector 296 MultiCell_Standalone.gnb1.cellularNic.mac avgServedBlocksDl:vector ETV
attr recordingmode vector
attr source avgServedBlocksDl
attr title "Average number of allocated Resource Blocks in the Dl"
attr unit blocks
vector 297 MultiCell_Standalone.gnb1.cellularNic.mac avgServedBlocksUl:vector ETV
attr recordingmode vector
attr source avgServedBlocksUl
attr title "Average number of allocated Resource Blocks in the Dl"
attr unit blocks
vector 298 MultiCell_Standalone.gnb1.cellularNic.channelModel[0] rcvdSinrDl:vector ETV
attr recordingmode vector
attr source rcvdSinrDl
attr title "SINR measured at packet reception, DL"
attr unit dB
vector 299 MultiCell_Standalone.gnb1.cellularNic.channelModel[0] rcvdSinrUl:vector ETV
attr recordingmode vector
attr source rcvdSinrUl
attr title "SINR measured at packet reception, UL"
attr unit dB
vector 300 MultiCell_Standalone.gnb1.cellularNic.channelModel[0] rcvdSinrD2D:vector ETV
attr recordingmode vector
attr source rcvdSinrD2D
attr title "SINR measured at packet reception, D2D"
attr unit dB
vector 301 MultiCell_Standalone.gnb1.cellularNic.channelModel[0] measuredSinrDl:vector ETV
attr recordingmode vector
attr source measuredSinrDl
attr title "SINR measured at feedback computation, DL"
attr unit dB
vector 302 MultiCell_Standalone.gnb1.cellularNic.channelModel[0] measuredSinrUl:vector ETV
attr recordingmode vector
attr source measuredSinrUl
attr title "SINR measured at feedback computation, UL"
attr unit dB
vector 303 MultiCell_Standalone.gnb1.cellularNic packetDropInterfaceDown:vector(packetBytes) ETV
attr interpolationmode none
attr recordingmode vector(packetBytes)
attr source packetDropReasonIsInterfaceDown(packetDropped)
attr title "packet drops: interface down, packetBytes"
vector 304 MultiCell_Standalone.gnb1.cellularNic packetDropNoCarrier:vector(packetBytes) ETV
attr interpolationmode none
attr recordingmode vector(packetBytes)
attr source packetDropReasonIsNoCarrier(packetDropped)
attr title "packet drops: no carrier, packetBytes"
vector 305 MultiCell_Standalone.gnb1.pppIf.queue queueLength:vector ETV
attr autoWarmupFilter false
attr interpolationmode sample-hold
attr recordingmode vector
attr source "warmup(atomic(constant0(packetPushEnded) + count(packetPushStarted) - count(packetPulled) - count(packetRemoved) - count(packetDropped)))"
attr title "queue length"
attr unit pk
vector 306 MultiCell_Standalone.gnb1.pppIf.queue queueBitLength:vector ETV
attr autoWarmupFilter false
attr interpolationmode sample-hold
attr recordingmode vector
attr source "warmup(atomic(constant0(packetPushEnded) + sum(packetLength(packetPushStarted)) - sum(packetLength(packetPulled)) - sum(packetLength(packetRemoved)) - sum(packetLength(packetDropped))))"
attr title "queue bit length"
attr unit b
vector 307 MultiCell_Standalone.gnb1.pppIf.queue queueingTime:vector ETV
attr interpolationmode none
attr recordingmode vector
attr source queueingTime(packetPulled)
attr title "queueing times"
attr unit s
vector 308 MultiCell_Standalone.gnb1.pppIf.queue incomingPacketLengths:vector ETV
attr interpolationmode none
attr recordingmode vector
attr source packetLength(packetPushStarted)
attr title "incoming packet lengths"
attr unit b
[...]
attr interpolationmode none
attr recordingmode vector(packetBytes)
attr source packetDropReasonIsNoCarrier(packetDropped)
attr title "packet drops: no carrier, packetBytes"
vector 16303 MultiCell_Standalone.ue[99].encap encapPk:vector(packetBytes) ETV
attr interpolationmode none
attr recordingmode vector(packetBytes)
attr source encapPk
attr title "packets encapsulated, packetBytes"
vector 16304 MultiCell_Standalone.ue[99].encap decapPk:vector(packetBytes) ETV
attr interpolationmode none
attr recordingmode vector(packetBytes)
attr source decapPk
attr title "packets decapsulated, packetBytes"
vector 16305 MultiCell_Standalone.ue[99].encap pauseSent:vector ETV
attr recordingmode vector
attr title "pause sent"
vector 16306 MultiCell_Standalone.ue[99].ipv4.ip packetDropAddressResolutionFailed:vector(packetBytes) ETV
attr interpolationmode none
attr recordingmode vector(packetBytes)
attr source packetDropReasonIsAddressResolutionFailed(packetDropped)
attr title "packet drop: address resolution failed, packetBytes"
vector 16307 MultiCell_Standalone.ue[99].ipv4.ip packetDropHopLimitReached:vector(packetBytes) ETV
attr interpolationmode none
attr recordingmode vector(packetBytes)
attr source packetDropReasonIsHopLimitReached(packetDropped)
attr title "packet drop: hop limit reached, packetBytes"
vector 16308 MultiCell_Standalone.ue[99].ipv4.ip packetDropForwardingDisabled:vector(packetBytes) ETV
attr interpolationmode none
attr recordingmode vector(packetBytes)
attr source packetDropReasonIsForwardingDisabled(packetDropped)
attr title "packet drop: forwarding disabled, packetBytes"
vector 16309 MultiCell_Standalone.ue[99].ipv4.ip packetDropNoInterfaceFound:vector(packetBytes) ETV
attr interpolationmode none
attr recordingmode vector(packetBytes)
attr source packetDropReasonIsNoInterfaceFound(packetDropped)
attr title "packet drop: no interface found, packetBytes"
vector 16310 MultiCell_Standalone.ue[99].ipv4.ip packetDropNoRouteFound:vector(packetBytes) ETV
attr interpolationmode none
attr recordingmode vector(packetBytes)
attr source packetDropReasonIsNoRouteFound(packetDropped)
attr title "packet drop: no route found, packetBytes"
vector 16311 MultiCell_Standalone.ue[99].ipv4.ip packetDropUndefined:vector(packetBytes) ETV
attr interpolationmode none
attr recordingmode vector(packetBytes)
attr source packetDropReasonIsUndefined(packetDropped)
attr title "packet drop: undefined, packetBytes"
vector 16312 MultiCell_Standalone.ue[99].ipv4.arp arpRequestSent:vector(packetBytes) ETV
attr recordingmode vector(packetBytes)
attr source arpRequestSent
attr title "ARP request sent, packetBytes"
vector 16313 MultiCell_Standalone.ue[99].ipv4.arp arpReplySent:vector(packetBytes) ETV
attr recordingmode vector(packetBytes)
attr source arpReplySent
attr title "ARP replies sent, packetBytes"
vector 16314 MultiCell_Standalone.ue[99].udp packetSent:vector(packetBytes) ETV
attr interpolationmode none
attr recordingmode vector(packetBytes)
attr source packetSent
attr title "packets sent, packetBytes"
vector 16315 MultiCell_Standalone.ue[99].udp packetReceived:vector(packetBytes) ETV
attr interpolationmode none
attr recordingmode vector(packetBytes)
attr source packetReceived
attr title "packets received, packetBytes"
vector 16316 MultiCell_Standalone.ue[99].udp passedUpPk:vector(count) ETV
attr interpolationmode none
attr recordingmode vector(count)
attr source packetSentToUpper
attr title "packets passed up, count"
vector 16317 MultiCell_Standalone.ue[99].udp droppedPkWrongPort:vector(count) ETV
attr interpolationmode none
attr recordingmode vector(count)
attr source packetDropReasonIsNoPortFound(packetDropped)
attr title "packets dropped (wrong port), count"
vector 16318 MultiCell_Standalone.ue[99].udp droppedPkBadChecksum:vector(count) ETV
attr interpolationmode none
attr recordingmode vector(count)
attr source packetDropReasonIsIncorrectlyReceived(packetDropped)
attr title "packets dropped (checksum error), count"
vector 16319 MultiCell_Standalone.gnb1.sctp "Throughput of Association 327" ETV
vector 16320 MultiCell_Standalone.gnb2.sctp "Throughput of Association 328" ETV
vector 16321 MultiCell_Standalone.gnb1.sctp "Throughput of Association 105" ETV
vector 16322 MultiCell_Standalone.gnb1.sctp "Fast Recovery State 105:10.0.7.2" ETV
vector 16323 MultiCell_Standalone.gnb2.sctp "Throughput of Association 109" ETV
vector 16324 MultiCell_Standalone.gnb2.sctp "Fast Recovery State 109:10.0.7.1" ETV
vector 16325 MultiCell_Standalone.gnb2.sctp "Throughput of Association 328" ETV
vector 16326 MultiCell_Standalone.gnb2.sctp "Peer Rwnd 328" ETV
vector 16327 MultiCell_Standalone.gnb2.sctp "Fast Recovery State 329:10.0.6.1" ETV
vector 16328 MultiCell_Standalone.gnb2.sctp "Fast Recovery State 329:10.0.3.2" ETV
vector 16329 MultiCell_Standalone.gnb2.sctp "Fast Recovery State 329:10.0.7.1" ETV
vector 16330 MultiCell_Standalone.gnb2.sctp "Fast Recovery State 329:10.0.8.1" ETV
vector 16331 MultiCell_Standalone.gnb1.sctp "Throughput of Association 327" ETV
vector 16332 MultiCell_Standalone.gnb1.sctp "Peer Rwnd 327" ETV
vector 16333 MultiCell_Standalone.gnb1.sctp "Fast Recovery State 330:10.0.6.2" ETV
vector 16334 MultiCell_Standalone.gnb1.sctp "Fast Recovery State 330:10.0.4.2" ETV
vector 16335 MultiCell_Standalone.gnb1.sctp "Fast Recovery State 330:10.0.7.2" ETV
vector 16336 MultiCell_Standalone.gnb1.sctp "Fast Recovery State 330:10.0.9.1" ETV
vector 16337 MultiCell_Standalone.gnb1.sctp "Peer Rwnd 105" ETV
vector 16338 MultiCell_Standalone.gnb1.sctp "Fast Recovery State 105:10.0.6.2" ETV
vector 16339 MultiCell_Standalone.gnb1.sctp "Fast Recovery State 105:10.0.4.2" ETV
vector 16340 MultiCell_Standalone.gnb1.sctp "Fast Recovery State 105:10.0.9.1" ETV
vector 16341 MultiCell_Standalone.gnb2.sctp "Peer Rwnd 109" ETV
vector 16342 MultiCell_Standalone.gnb2.sctp "Fast Recovery State 109:10.0.6.1" ETV
vector 16343 MultiCell_Standalone.gnb2.sctp "Fast Recovery State 109:10.0.3.2" ETV
vector 16344 MultiCell_Standalone.gnb2.sctp "Fast Recovery State 109:10.0.8.1" ETV
vector 16345 MultiCell_Standalone.gnb2.sctp "Slow Start Threshold 329:10.0.3.2" ETV
vector 16346 MultiCell_Standalone.gnb2.sctp "Congestion Window 329:10.0.3.2" ETV
vector 16347 MultiCell_Standalone.gnb2.sctp "Bandwidth 329:10.0.3.2" ETV
vector 16348 MultiCell_Standalone.gnb2.sctp "HB Sent 329:10.0.3.2" ETV
vector 16349 MultiCell_Standalone.gnb2.sctp "RTO 329:10.0.3.2" ETV
vector 16350 MultiCell_Standalone.gnb2.sctp "Slow Start Threshold 329:10.0.6.1" ETV
vector 16351 MultiCell_Standalone.gnb2.sctp "Congestion Window 329:10.0.6.1" ETV
vector 16352 MultiCell_Standalone.gnb2.sctp "Bandwidth 329:10.0.6.1" ETV
vector 16353 MultiCell_Standalone.gnb2.sctp "HB Sent 329:10.0.6.1" ETV
vector 16354 MultiCell_Standalone.gnb2.sctp "RTO 329:10.0.6.1" ETV
vector 16355 MultiCell_Standalone.gnb2.sctp "Slow Start Threshold 329:10.0.7.1" ETV
vector 16356 MultiCell_Standalone.gnb2.sctp "Congestion Window 329:10.0.7.1" ETV
vector 16357 MultiCell_Standalone.gnb2.sctp "Bandwidth 329:10.0.7.1" ETV
vector 16358 MultiCell_Standalone.gnb2.sctp "RTO 329:10.0.7.1" ETV
vector 16359 MultiCell_Standalone.gnb2.sctp "Slow Start Threshold 329:10.0.8.1" ETV
vector 16360 MultiCell_Standalone.gnb2.sctp "Congestion Window 329:10.0.8.1" ETV
vector 16361 MultiCell_Standalone.gnb2.sctp "Bandwidth 329:10.0.8.1" ETV
vector 16362 MultiCell_Standalone.gnb2.sctp "HB Sent 329:10.0.8.1" ETV
vector 16363 MultiCell_Standalone.gnb2.sctp "RTO 329:10.0.8.1" ETV
vector 16364 MultiCell_Standalone.gnb1.sctp "Slow Start Threshold 330:10.0.4.2" ETV
vector 16365 MultiCell_Standalone.gnb1.sctp "Congestion Window 330:10.0.4.2" ETV
vector 16366 MultiCell_Standalone.gnb1.sctp "Bandwidth 330:10.0.4.2" ETV
vector 16367 MultiCell_Standalone.gnb1.sctp "HB Sent 330:10.0.4.2" ETV
vector 16368 MultiCell_Standalone.gnb1.sctp "RTO 330:10.0.4.2" ETV
vector 16369 MultiCell_Standalone.gnb1.sctp "Slow Start Threshold 330:10.0.6.2" ETV
vector 16370 MultiCell_Standalone.gnb1.sctp "Congestion Window 330:10.0.6.2" ETV
vector 16371 MultiCell_Standalone.gnb1.sctp "Bandwidth 330:10.0.6.2" ETV
vector 16372 MultiCell_Standalone.gnb1.sctp "HB Sent 330:10.0.6.2" ETV
vector 16373 MultiCell_Standalone.gnb1.sctp "RTO 330:10.0.6.2" ETV
vector 16374 MultiCell_Standalone.gnb1.sctp "Slow Start Threshold 330:10.0.7.2" ETV
vector 16375 MultiCell_Standalone.gnb1.sctp "Congestion Window 330:10.0.7.2" ETV
vector 16376 MultiCell_Standalone.gnb1.sctp "Bandwidth 330:10.0.7.2" ETV
vector 16377 MultiCell_Standalone.gnb1.sctp "RTO 330:10.0.7.2" ETV
vector 16378 MultiCell_Standalone.gnb1.sctp "Slow Start Threshold 330:10.0.9.1" ETV
vector 16379 MultiCell_Standalone.gnb1.sctp "Congestion Window 330:10.0.9.1" ETV
vector 16380 MultiCell_Standalone.gnb1.sctp "Bandwidth 330:10.0.9.1" ETV
vector 16381 MultiCell_Standalone.gnb1.sctp "HB Sent 330:10.0.9.1" ETV
vector 16382 MultiCell_Standalone.gnb1.sctp "RTO 330:10.0.9.1" ETV
vector 16383 MultiCell_Standalone.gnb1.sctp "HB ACK Sent 105:10.0.7.2" ETV
vector 16384 MultiCell_Standalone.gnb1.sctp "HB Received 105:10.0.7.2" ETV
vector 16385 MultiCell_Standalone.gnb2.sctp "HB ACK Sent 109:10.0.7.1" ETV
vector 16386 MultiCell_Standalone.gnb2.sctp "HB Received 109:10.0.7.1" ETV
vector 16387 MultiCell_Standalone.gnb1.sctp "Slow Start Threshold 105:10.0.4.2" ETV
vector 16388 MultiCell_Standalone.gnb1.sctp "Congestion Window 105:10.0.4.2" ETV
vector 16389 MultiCell_Standalone.gnb1.sctp "Bandwidth 105:10.0.4.2" ETV
vector 16390 MultiCell_Standalone.gnb1.sctp "HB Sent 105:10.0.4.2" ETV
vector 16391 MultiCell_Standalone.gnb1.sctp "RTO 105:10.0.4.2" ETV
vector 16392 MultiCell_Standalone.gnb1.sctp "Slow Start Threshold 105:10.0.6.2" ETV
vector 16393 MultiCell_Standalone.gnb1.sctp "Congestion Window 105:10.0.6.2" ETV
vector 16394 MultiCell_Standalone.gnb1.sctp "Bandwidth 105:10.0.6.2" ETV
vector 16395 MultiCell_Standalone.gnb1.sctp "HB Sent 105:10.0.6.2" ETV
vector 16396 MultiCell_Standalone.gnb1.sctp "RTO 105:10.0.6.2" ETV
vector 16397 MultiCell_Standalone.gnb1.sctp "Slow Start Threshold 105:10.0.7.2" ETV
vector 16398 MultiCell_Standalone.gnb1.sctp "Congestion Window 105:10.0.7.2" ETV
vector 16399 MultiCell_Standalone.gnb1.sctp "Bandwidth 105:10.0.7.2" ETV
vector 16400 MultiCell_Standalone.gnb1.sctp "RTO 105:10.0.7.2" ETV
vector 16401 MultiCell_Standalone.gnb1.sctp "Slow Start Threshold 105:10.0.9.1" ETV
vector 16402 MultiCell_Standalone.gnb1.sctp "Congestion Window 105:10.0.9.1" ETV
vector 16403 MultiCell_Standalone.gnb1.sctp "Bandwidth 105:10.0.9.1" ETV
vector 16404 MultiCell_Standalone.gnb1.sctp "HB Sent 105:10.0.9.1" ETV
vector 16405 MultiCell_Standalone.gnb1.sctp "RTO 105:10.0.9.1" ETV
vector 16406 MultiCell_Standalone.gnb2.sctp "Slow Start Threshold 109:10.0.3.2" ETV
vector 16407 MultiCell_Standalone.gnb2.sctp "Congestion Window 109:10.0.3.2" ETV
vector 16408 MultiCell_Standalone.gnb2.sctp "Bandwidth 109:10.0.3.2" ETV
vector 16409 MultiCell_Standalone.gnb2.sctp "HB Sent 109:10.0.3.2" ETV
vector 16410 MultiCell_Standalone.gnb2.sctp "RTO 109:10.0.3.2" ETV
vector 16411 MultiCell_Standalone.gnb2.sctp "Slow Start Threshold 109:10.0.6.1" ETV
vector 16412 MultiCell_Standalone.gnb2.sctp "Congestion Window 109:10.0.6.1" ETV
vector 16413 MultiCell_Standalone.gnb2.sctp "Bandwidth 109:10.0.6.1" ETV
vector 16414 MultiCell_Standalone.gnb2.sctp "HB Sent 109:10.0.6.1" ETV
vector 16415 MultiCell_Standalone.gnb2.sctp "RTO 109:10.0.6.1" ETV
vector 16416 MultiCell_Standalone.gnb2.sctp "Slow Start Threshold 109:10.0.7.1" ETV
vector 16417 MultiCell_Standalone.gnb2.sctp "Congestion Window 109:10.0.7.1" ETV
vector 16418 MultiCell_Standalone.gnb2.sctp "Bandwidth 109:10.0.7.1" ETV
vector 16419 MultiCell_Standalone.gnb2.sctp "RTO 109:10.0.7.1" ETV
vector 16420 MultiCell_Standalone.gnb2.sctp "Slow Start Threshold 109:10.0.8.1" ETV
vector 16421 MultiCell_Standalone.gnb2.sctp "Congestion Window 109:10.0.8.1" ETV
vector 16422 MultiCell_Standalone.gnb2.sctp "Bandwidth 109:10.0.8.1" ETV
vector 16423 MultiCell_Standalone.gnb2.sctp "HB Sent 109:10.0.8.1" ETV
vector 16424 MultiCell_Standalone.gnb2.sctp "RTO 109:10.0.8.1" ETV
vector 16425 MultiCell_Standalone.gnb1.sctp "HB ACK Received 330:10.0.7.2" ETV
vector 16426 MultiCell_Standalone.gnb1.sctp "RTT 330:10.0.7.2" ETV
vector 16427 MultiCell_Standalone.gnb2.sctp "HB ACK Received 329:10.0.7.1" ETV
vector 16428 MultiCell_Standalone.gnb2.sctp "RTT 329:10.0.7.1" ETV
vector 16429 MultiCell_Standalone.gnb1.sctp "HB ACK Sent 330:10.0.7.2" ETV
vector 16430 MultiCell_Standalone.gnb1.sctp "HB Received 330:10.0.7.2" ETV
vector 16431 MultiCell_Standalone.gnb2.sctp "HB ACK Sent 329:10.0.7.1" ETV
vector 16432 MultiCell_Standalone.gnb2.sctp "HB Received 329:10.0.7.1" ETV
vector 16433 MultiCell_Standalone.gnb1.sctp "HB ACK Received 105:10.0.7.2" ETV
vector 16434 MultiCell_Standalone.gnb1.sctp "RTT 105:10.0.7.2" ETV
vector 16435 MultiCell_Standalone.gnb2.sctp "HB ACK Received 109:10.0.7.1" ETV
vector 16436 MultiCell_Standalone.gnb2.sctp "RTT 109:10.0.7.1" ETV
vector 16437 MultiCell_Standalone.gnb2.sctp "SendQueue of Association 329" ETV
vector 16438 MultiCell_Standalone.gnb2.sctp "TSN Sent 329:10.0.7.1" ETV
vector 16439 MultiCell_Standalone.gnb2.sctp "Outstanding Bytes 329:10.0.7.1" ETV
vector 16440 MultiCell_Standalone.gnb2.sctp "Outstanding Bytes 328:Total" ETV
vector 16441 MultiCell_Standalone.gnb2.sctp "Queued Sent Bytes 329:10.0.7.1" ETV
vector 16442 MultiCell_Standalone.gnb2.sctp "Queued Sent Bytes 328:Total" ETV
vector 16443 MultiCell_Standalone.gnb1.sctp "TSN Received 105:10.0.7.2" ETV
vector 16444 MultiCell_Standalone.gnb1.sctp "Queued Received Bytes 105:Total" ETV
vector 16445 MultiCell_Standalone.gnb1.sctp "Advertised Receiver Window 105" ETV
vector 16446 MultiCell_Standalone.gnb1.sctp "Number of Total Gap Blocks Stored 105" ETV
vector 16447 MultiCell_Standalone.gnb1.sctp "Number of Revokable Gap Blocks Stored 105" ETV
vector 16448 MultiCell_Standalone.gnb1.sctp "Number of Non-Revokable Gap Blocks Stored 105" ETV
vector 16449 MultiCell_Standalone.gnb1.sctp "Number of Duplicate TSNs Stored 105" ETV
vector 16450 MultiCell_Standalone.gnb1.sctp "Length of SACK Sent 105" ETV
vector 16451 MultiCell_Standalone.gnb1.sctp "Number of Revokable Gap Blocks Sent 105" ETV
vector 16452 MultiCell_Standalone.gnb1.sctp "Number of Non-Revokable Gap Blocks Sent 105" ETV
vector 16453 MultiCell_Standalone.gnb1.sctp "Number of Duplicate TSNs Sent 105" ETV
vector 16454 MultiCell_Standalone.gnb1.sctp "End to End Delay of Association 105" ETV
vector 16455 MultiCell_Standalone.gnb2.sctp "Number of Gap Blocks in Last SACK of Association 329" ETV
vector 16456 MultiCell_Standalone.gnb2.sctp "Number of Revokable Gap Blocks in SACK 328" ETV
vector 16457 MultiCell_Standalone.gnb2.sctp "Number of Non-Revokable Gap Blocks in SACK 328" ETV
vector 16458 MultiCell_Standalone.gnb2.sctp "TSN Acked CumAck 329:10.0.7.1" ETV
vector 16459 MultiCell_Standalone.gnb2.sctp "Number of Gap Acked Chunks in Last SACK 329:10.0.3.2" ETV
vector 16460 MultiCell_Standalone.gnb2.sctp "Number of Non-Revokable Gap Acked Chunks in Last SACK 329:10.0.3.2" ETV
vector 16461 MultiCell_Standalone.gnb2.sctp "Number of Gap Missed Chunks in Last SACK 329:10.0.3.2" ETV
vector 16462 MultiCell_Standalone.gnb2.sctp "Number of Gap Acked Chunks in Last SACK 329:10.0.6.1" ETV
vector 16463 MultiCell_Standalone.gnb2.sctp "Number of Non-Revokable Gap Acked Chunks in Last SACK 329:10.0.6.1" ETV
vector 16464 MultiCell_Standalone.gnb2.sctp "Number of Gap Missed Chunks in Last SACK 329:10.0.6.1" ETV
vector 16465 MultiCell_Standalone.gnb2.sctp "Number of Gap Acked Chunks in Last SACK 329:10.0.7.1" ETV
vector 16466 MultiCell_Standalone.gnb2.sctp "Number of Non-Revokable Gap Acked Chunks in Last SACK 329:10.0.7.1" ETV
vector 16467 MultiCell_Standalone.gnb2.sctp "Number of Gap Missed Chunks in Last SACK 329:10.0.7.1" ETV
vector 16468 MultiCell_Standalone.gnb2.sctp "Number of Gap Acked Chunks in Last SACK 329:10.0.8.1" ETV
vector 16469 MultiCell_Standalone.gnb2.sctp "Number of Non-Revokable Gap Acked Chunks in Last SACK 329:10.0.8.1" ETV
vector 16470 MultiCell_Standalone.gnb2.sctp "Number of Gap Missed Chunks in Last SACK 329:10.0.8.1" ETV
vector 16471 MultiCell_Standalone.gnb2.sctp "Arwnd in Last SACK 328" ETV
vector 16472 MultiCell_Standalone.gnb2.sctp "TSN PseudoCumAck 329:10.0.7.1" ETV
vector 16473 MultiCell_Standalone.gnb2.sctp "TSN RTXPseudoCumAck 329:10.0.7.1" ETV
vector 16474 MultiCell_Standalone.gnb2.sctp "Partial Bytes Acked 329:10.0.7.1" ETV
vector 16475 MultiCell_Standalone.gnb1.sctp "SendQueue of Association 330" ETV
vector 16476 MultiCell_Standalone.gnb1.sctp "TSN Sent 330:10.0.7.2" ETV
vector 16477 MultiCell_Standalone.gnb1.sctp "Outstanding Bytes 330:10.0.7.2" ETV
vector 16478 MultiCell_Standalone.gnb1.sctp "Outstanding Bytes 327:Total" ETV
vector 16479 MultiCell_Standalone.gnb1.sctp "Queued Sent Bytes 330:10.0.7.2" ETV
vector 16480 MultiCell_Standalone.gnb1.sctp "Queued Sent Bytes 327:Total" ETV
vector 16481 MultiCell_Standalone.gnb2.sctp "TSN Received 109:10.0.7.1" ETV
vector 16482 MultiCell_Standalone.gnb2.sctp "Queued Received Bytes 109:Total" ETV
vector 16483 MultiCell_Standalone.gnb2.sctp "Advertised Receiver Window 109" ETV
vector 16484 MultiCell_Standalone.gnb2.sctp "Number of Total Gap Blocks Stored 109" ETV
vector 16485 MultiCell_Standalone.gnb2.sctp "Number of Revokable Gap Blocks Stored 109" ETV
vector 16486 MultiCell_Standalone.gnb2.sctp "Number of Non-Revokable Gap Blocks Stored 109" ETV
vector 16487 MultiCell_Standalone.gnb2.sctp "Number of Duplicate TSNs Stored 109" ETV
vector 16488 MultiCell_Standalone.gnb2.sctp "Length of SACK Sent 109" ETV
vector 16489 MultiCell_Standalone.gnb2.sctp "Number of Revokable Gap Blocks Sent 109" ETV
vector 16490 MultiCell_Standalone.gnb2.sctp "Number of Non-Revokable Gap Blocks Sent 109" ETV
vector 16491 MultiCell_Standalone.gnb2.sctp "Number of Duplicate TSNs Sent 109" ETV
vector 16492 MultiCell_Standalone.gnb2.sctp "End to End Delay of Association 109" ETV
vector 16493 MultiCell_Standalone.gnb1.sctp "Number of Gap Blocks in Last SACK of Association 330" ETV
vector 16494 MultiCell_Standalone.gnb1.sctp "Number of Revokable Gap Blocks in SACK 327" ETV
vector 16495 MultiCell_Standalone.gnb1.sctp "Number of Non-Revokable Gap Blocks in SACK 327" ETV
vector 16496 MultiCell_Standalone.gnb1.sctp "TSN Acked CumAck 330:10.0.7.2" ETV
vector 16497 MultiCell_Standalone.gnb1.sctp "Number of Gap Acked Chunks in Last SACK 330:10.0.4.2" ETV
vector 16498 MultiCell_Standalone.gnb1.sctp "Number of Non-Revokable Gap Acked Chunks in Last SACK 330:10.0.4.2" ETV
vector 16499 MultiCell_Standalone.gnb1.sctp "Number of Gap Missed Chunks in Last SACK 330:10.0.4.2" ETV
vector 16500 MultiCell_Standalone.gnb1.sctp "Number of Gap Acked Chunks in Last SACK 330:10.0.6.2" ETV
vector 16501 MultiCell_Standalone.gnb1.sctp "Number of Non-Revokable Gap Acked Chunks in Last SACK 330:10.0.6.2" ETV
vector 16502 MultiCell_Standalone.gnb1.sctp "Number of Gap Missed Chunks in Last SACK 330:10.0.6.2" ETV
vector 16503 MultiCell_Standalone.gnb1.sctp "Number of Gap Acked Chunks in Last SACK 330:10.0.7.2" ETV
vector 16504 MultiCell_Standalone.gnb1.sctp "Number of Non-Revokable Gap Acked Chunks in Last SACK 330:10.0.7.2" ETV
vector 16505 MultiCell_Standalone.gnb1.sctp "Number of Gap Missed Chunks in Last SACK 330:10.0.7.2" ETV
vector 16506 MultiCell_Standalone.gnb1.sctp "Number of Gap Acked Chunks in Last SACK 330:10.0.9.1" ETV
vector 16507 MultiCell_Standalone.gnb1.sctp "Number of Non-Revokable Gap Acked Chunks in Last SACK 330:10.0.9.1" ETV
vector 16508 MultiCell_Standalone.gnb1.sctp "Number of Gap Missed Chunks in Last SACK 330:10.0.9.1" ETV
vector 16509 MultiCell_Standalone.gnb1.sctp "Arwnd in Last SACK 327" ETV
vector 16510 MultiCell_Standalone.gnb1.sctp "TSN PseudoCumAck 330:10.0.7.2" ETV
vector 16511 MultiCell_Standalone.gnb1.sctp "TSN RTXPseudoCumAck 330:10.0.7.2" ETV
vector 16512 MultiCell_Standalone.gnb1.sctp "Partial Bytes Acked 330:10.0.7.2" ETV

